<routes>
        <vType id="typeWE" accel="0.8" decel="4.5" sigma="0.5" length="5" minGap="2.5" maxSpeed="16.67" guiShape="passenger"/>
        <vType id="typeNS" accel="0.8" decel="4.5" sigma="0.5" length="7" minGap="3" maxSpeed="25" guiShape="bus"/>

        <route id="right" edges="51o 1i 2o 52i" />
        <route id="left" edges="52o 2i 1o 51i" />
        <route id="down" edges="54o 4i 3o 53i" />
    <vehicle id="left_0" type="typeWE" route="left" depart="0" />
    <vehicle id="left_1" type="typeWE" route="left" depart="2" />
    <vehicle id="right_2" type="typeWE" route="right" depart="3" />
    <vehicle id="right_3" type="typeWE" route="right" depart="4" />
    <vehicle id="left_4" type="typeWE" route="left" depart="6" />
    <vehicle id="down_5" type="typeNS" route="down" depart="7" color="1,0,0"/>
    <vehicle id="down_6" type="typeNS" route="down" depart="8" color="1,0,0"/>
    <vehicle id="right_7" type="typeWE" route="right" depart="9" />
    <vehicle id="down_8" type="typeNS" route="down" depart="13" color="1,0,0"/>
    <vehicle id="down_9" type="typeNS" route="down" depart="14" color="1,0,0"/>
    <vehicle id="down_10" type="typeNS" route="down" depart="18" color="1,0,0"/>
    <vehicle id="left_11" type="typeWE" route="left" depart="22" />
    <vehicle id="down_12" type="typeNS" route="down" depart="29" color="1,0,0"/>
    <vehicle id="left_13" type="typeWE" route="left" depart="31" />
    <vehicle id="left_14" type="typeWE" route="left" depart="33" />
    <vehicle id="down_15" type="typeNS" route="down" depart="37" color="1,0,0"/>
    <vehicle id="down_16" type="typeNS" route="down" depart="39" color="1,0,0"/>
    <vehicle id="left_17" type="typeWE" route="left" depart="41" />
    <vehicle id="right_18" type="typeWE" route="right" depart="42" />
    <vehicle id="down_19" type="typeNS" route="down" depart="43" color="1,0,0"/>
    <vehicle id="down_20" type="typeNS" route="down" depart="44" color="1,0,0"/>
    <vehicle id="left_21" type="typeWE" route="left" depart="45" />
    <vehicle id="left_22" type="typeWE" route="left" depart="53" />
    <vehicle id="right_23" type="typeWE" route="right" depart="55" />
    <vehicle id="down_24" type="typeNS" route="down" depart="58" color="1,0,0"/>
    <vehicle id="right_25" type="typeWE" route="right" depart="61" />
    <vehicle id="down_26" type="typeNS" route="down" depart="62" color="1,0,0"/>
    <vehicle id="down_27" type="typeNS" route="down" depart="65" color="1,0,0"/>
    <vehicle id="down_28" type="typeNS" route="down" depart="67" color="1,0,0"/>
    <vehicle id="right_29" type="typeWE" route="right" depart="69" />
    <vehicle id="down_30" type="typeNS" route="down" depart="72" color="1,0,0"/>
    <vehicle id="down_31" type="typeNS" route="down" depart="74" color="1,0,0"/>
    <vehicle id="down_32" type="typeNS" route="down" depart="76" color="1,0,0"/>
    <vehicle id="right_33" type="typeWE" route="right" depart="84" />
    <vehicle id="left_34" type="typeWE" route="left" depart="85" />
    <vehicle id="down_35" type="typeNS" route="down" depart="87" color="1,0,0"/>
    <vehicle id="down_36" type="typeNS" route="down" depart="89" color="1,0,0"/>
    <vehicle id="down_37" type="typeNS" route="down" depart="91" color="1,0,0"/>
    <vehicle id="down_38" type="typeNS" route="down" depart="95" color="1,0,0"/>
    <vehicle id="down_39" type="typeNS" route="down" depart="96" color="1,0,0"/>
    <vehicle id="right_40" type="typeWE" route="right" depart="99" />
    <vehicle id="left_41" type="typeWE" route="left" depart="99" />
    <vehicle id="down_42" type="typeNS" route="down" depart="101" color="1,0,0"/>
    <vehicle id="right_43" type="typeWE" route="right" depart="108" />
    <vehicle id="right_44" type="typeWE" route="right" depart="114" />
    <vehicle id="down_45" type="typeNS" route="down" depart="117" color="1,0,0"/>
    <vehicle id="down_46" type="typeNS" route="down" depart="122" color="1,0,0"/>
    <vehicle id="right_47" type="typeWE" route="right" depart="125" />
    <vehicle id="down_48" type="typeNS" route="down" depart="128" color="1,0,0"/>
    <vehicle id="left_49" type="typeWE" route="left" depart="131" />
    <vehicle id="left_50" type="typeWE" route="left" depart="135" />
    <vehicle id="left_51" type="typeWE" route="left" depart="138" />
    <vehicle id="down_52" type="typeNS" route="down" depart="139" color="1,0,0"/>
    <vehicle id="down_53" type="typeNS" route="down" depart="140" color="1,0,0"/>
    <vehicle id="left_54" type="typeWE" route="left" depart="142" />
    <vehicle id="right_55" type="typeWE" route="right" depart="145" />
    <vehicle id="left_56" type="typeWE" route="left" depart="153" />
    <vehicle id="left_57" type="typeWE" route="left" depart="156" />
    <vehicle id="left_58" type="typeWE" route="left" depart="160" />
    <vehicle id="left_59" type="typeWE" route="left" depart="164" />
    <vehicle id="down_60" type="typeNS" route="down" depart="165" color="1,0,0"/>
    <vehicle id="right_61" type="typeWE" route="right" depart="167" />
    <vehicle id="right_62" type="typeWE" route="right" depart="168" />
    <vehicle id="down_63" type="typeNS" route="down" depart="168" color="1,0,0"/>
    <vehicle id="left_64" type="typeWE" route="left" depart="169" />
    <vehicle id="left_65" type="typeWE" route="left" depart="172" />
    <vehicle id="down_66" type="typeNS" route="down" depart="172" color="1,0,0"/>
    <vehicle id="down_67" type="typeNS" route="down" depart="175" color="1,0,0"/>
    <vehicle id="right_68" type="typeWE" route="right" depart="176" />
    <vehicle id="down_69" type="typeNS" route="down" depart="176" color="1,0,0"/>
    <vehicle id="down_70" type="typeNS" route="down" depart="178" color="1,0,0"/>
    <vehicle id="down_71" type="typeNS" route="down" depart="179" color="1,0,0"/>
    <vehicle id="down_72" type="typeNS" route="down" depart="180" color="1,0,0"/>
    <vehicle id="right_73" type="typeWE" route="right" depart="181" />
    <vehicle id="right_74" type="typeWE" route="right" depart="183" />
    <vehicle id="down_75" type="typeNS" route="down" depart="188" color="1,0,0"/>
    <vehicle id="left_76" type="typeWE" route="left" depart="194" />
    <vehicle id="left_77" type="typeWE" route="left" depart="196" />
    <vehicle id="left_78" type="typeWE" route="left" depart="199" />
    <vehicle id="right_79" type="typeWE" route="right" depart="200" />
    <vehicle id="down_80" type="typeNS" route="down" depart="202" color="1,0,0"/>
    <vehicle id="down_81" type="typeNS" route="down" depart="207" color="1,0,0"/>
    <vehicle id="down_82" type="typeNS" route="down" depart="208" color="1,0,0"/>
    <vehicle id="left_83" type="typeWE" route="left" depart="212" />
    <vehicle id="down_84" type="typeNS" route="down" depart="216" color="1,0,0"/>
    <vehicle id="right_85" type="typeWE" route="right" depart="217" />
    <vehicle id="down_86" type="typeNS" route="down" depart="218" color="1,0,0"/>
    <vehicle id="left_87" type="typeWE" route="left" depart="219" />
    <vehicle id="down_88" type="typeNS" route="down" depart="219" color="1,0,0"/>
    <vehicle id="down_89" type="typeNS" route="down" depart="227" color="1,0,0"/>
    <vehicle id="right_90" type="typeWE" route="right" depart="228" />
    <vehicle id="left_91" type="typeWE" route="left" depart="234" />
    <vehicle id="down_92" type="typeNS" route="down" depart="234" color="1,0,0"/>
    <vehicle id="left_93" type="typeWE" route="left" depart="238" />
    <vehicle id="down_94" type="typeNS" route="down" depart="238" color="1,0,0"/>
    <vehicle id="right_95" type="typeWE" route="right" depart="240" />
    <vehicle id="down_96" type="typeNS" route="down" depart="242" color="1,0,0"/>
    <vehicle id="down_97" type="typeNS" route="down" depart="245" color="1,0,0"/>
    <vehicle id="down_98" type="typeNS" route="down" depart="252" color="1,0,0"/>
    <vehicle id="down_99" type="typeNS" route="down" depart="259" color="1,0,0"/>
    <vehicle id="down_100" type="typeNS" route="down" depart="270" color="1,0,0"/>
    <vehicle id="left_101" type="typeWE" route="left" depart="272" />
    <vehicle id="left_102" type="typeWE" route="left" depart="275" />
    <vehicle id="down_103" type="typeNS" route="down" depart="283" color="1,0,0"/>
    <vehicle id="right_104" type="typeWE" route="right" depart="284" />
    <vehicle id="right_105" type="typeWE" route="right" depart="286" />
    <vehicle id="right_106" type="typeWE" route="right" depart="288" />
    <vehicle id="down_107" type="typeNS" route="down" depart="290" color="1,0,0"/>
    <vehicle id="right_108" type="typeWE" route="right" depart="291" />
    <vehicle id="down_109" type="typeNS" route="down" depart="292" color="1,0,0"/>
    <vehicle id="right_110" type="typeWE" route="right" depart="294" />
    <vehicle id="down_111" type="typeNS" route="down" depart="302" color="1,0,0"/>
    <vehicle id="down_112" type="typeNS" route="down" depart="309" color="1,0,0"/>
    <vehicle id="down_113" type="typeNS" route="down" depart="310" color="1,0,0"/>
    <vehicle id="down_114" type="typeNS" route="down" depart="315" color="1,0,0"/>
    <vehicle id="down_115" type="typeNS" route="down" depart="318" color="1,0,0"/>
    <vehicle id="right_116" type="typeWE" route="right" depart="322" />
    <vehicle id="down_117" type="typeNS" route="down" depart="323" color="1,0,0"/>
    <vehicle id="down_118" type="typeNS" route="down" depart="326" color="1,0,0"/>
    <vehicle id="down_119" type="typeNS" route="down" depart="329" color="1,0,0"/>
    <vehicle id="down_120" type="typeNS" route="down" depart="331" color="1,0,0"/>
    <vehicle id="down_121" type="typeNS" route="down" depart="335" color="1,0,0"/>
    <vehicle id="down_122" type="typeNS" route="down" depart="337" color="1,0,0"/>
    <vehicle id="down_123" type="typeNS" route="down" depart="338" color="1,0,0"/>
    <vehicle id="left_124" type="typeWE" route="left" depart="339" />
    <vehicle id="right_125" type="typeWE" route="right" depart="342" />
    <vehicle id="down_126" type="typeNS" route="down" depart="342" color="1,0,0"/>
    <vehicle id="down_127" type="typeNS" route="down" depart="343" color="1,0,0"/>
    <vehicle id="left_128" type="typeWE" route="left" depart="344" />
    <vehicle id="down_129" type="typeNS" route="down" depart="344" color="1,0,0"/>
    <vehicle id="left_130" type="typeWE" route="left" depart="346" />
    <vehicle id="down_131" type="typeNS" route="down" depart="348" color="1,0,0"/>
    <vehicle id="down_132" type="typeNS" route="down" depart="349" color="1,0,0"/>
    <vehicle id="down_133" type="typeNS" route="down" depart="351" color="1,0,0"/>
    <vehicle id="down_134" type="typeNS" route="down" depart="353" color="1,0,0"/>
    <vehicle id="right_135" type="typeWE" route="right" depart="354" />
    <vehicle id="down_136" type="typeNS" route="down" depart="354" color="1,0,0"/>
    <vehicle id="down_137" type="typeNS" route="down" depart="357" color="1,0,0"/>
    <vehicle id="down_138" type="typeNS" route="down" depart="361" color="1,0,0"/>
    <vehicle id="down_139" type="typeNS" route="down" depart="363" color="1,0,0"/>
    <vehicle id="down_140" type="typeNS" route="down" depart="364" color="1,0,0"/>
    <vehicle id="right_141" type="typeWE" route="right" depart="375" />
    <vehicle id="down_142" type="typeNS" route="down" depart="377" color="1,0,0"/>
    <vehicle id="down_143" type="typeNS" route="down" depart="379" color="1,0,0"/>
    <vehicle id="down_144" type="typeNS" route="down" depart="382" color="1,0,0"/>
    <vehicle id="right_145" type="typeWE" route="right" depart="383" />
    <vehicle id="left_146" type="typeWE" route="left" depart="388" />
    <vehicle id="left_147" type="typeWE" route="left" depart="389" />
    <vehicle id="left_148" type="typeWE" route="left" depart="391" />
    <vehicle id="right_149" type="typeWE" route="right" depart="394" />
    <vehicle id="down_150" type="typeNS" route="down" depart="394" color="1,0,0"/>
    <vehicle id="right_151" type="typeWE" route="right" depart="395" />
    <vehicle id="down_152" type="typeNS" route="down" depart="397" color="1,0,0"/>
    <vehicle id="down_153" type="typeNS" route="down" depart="399" color="1,0,0"/>
    <vehicle id="down_154" type="typeNS" route="down" depart="402" color="1,0,0"/>
    <vehicle id="down_155" type="typeNS" route="down" depart="407" color="1,0,0"/>
    <vehicle id="down_156" type="typeNS" route="down" depart="411" color="1,0,0"/>
    <vehicle id="right_157" type="typeWE" route="right" depart="412" />
    <vehicle id="left_158" type="typeWE" route="left" depart="413" />
    <vehicle id="down_159" type="typeNS" route="down" depart="414" color="1,0,0"/>
    <vehicle id="left_160" type="typeWE" route="left" depart="415" />
    <vehicle id="left_161" type="typeWE" route="left" depart="420" />
    <vehicle id="down_162" type="typeNS" route="down" depart="420" color="1,0,0"/>
    <vehicle id="down_163" type="typeNS" route="down" depart="426" color="1,0,0"/>
    <vehicle id="right_164" type="typeWE" route="right" depart="427" />
    <vehicle id="down_165" type="typeNS" route="down" depart="436" color="1,0,0"/>
    <vehicle id="down_166" type="typeNS" route="down" depart="438" color="1,0,0"/>
    <vehicle id="down_167" type="typeNS" route="down" depart="440" color="1,0,0"/>
    <vehicle id="down_168" type="typeNS" route="down" depart="441" color="1,0,0"/>
    <vehicle id="down_169" type="typeNS" route="down" depart="443" color="1,0,0"/>
    <vehicle id="down_170" type="typeNS" route="down" depart="451" color="1,0,0"/>
    <vehicle id="down_171" type="typeNS" route="down" depart="455" color="1,0,0"/>
    <vehicle id="down_172" type="typeNS" route="down" depart="457" color="1,0,0"/>
    <vehicle id="right_173" type="typeWE" route="right" depart="458" />
    <vehicle id="down_174" type="typeNS" route="down" depart="459" color="1,0,0"/>
    <vehicle id="down_175" type="typeNS" route="down" depart="462" color="1,0,0"/>
    <vehicle id="down_176" type="typeNS" route="down" depart="463" color="1,0,0"/>
    <vehicle id="right_177" type="typeWE" route="right" depart="464" />
    <vehicle id="right_178" type="typeWE" route="right" depart="467" />
    <vehicle id="left_179" type="typeWE" route="left" depart="469" />
    <vehicle id="left_180" type="typeWE" route="left" depart="472" />
    <vehicle id="right_181" type="typeWE" route="right" depart="473" />
    <vehicle id="left_182" type="typeWE" route="left" depart="476" />
    <vehicle id="right_183" type="typeWE" route="right" depart="479" />
    <vehicle id="right_184" type="typeWE" route="right" depart="482" />
    <vehicle id="left_185" type="typeWE" route="left" depart="483" />
    <vehicle id="down_186" type="typeNS" route="down" depart="483" color="1,0,0"/>
    <vehicle id="right_187" type="typeWE" route="right" depart="484" />
    <vehicle id="left_188" type="typeWE" route="left" depart="492" />
    <vehicle id="right_189" type="typeWE" route="right" depart="494" />
    <vehicle id="left_190" type="typeWE" route="left" depart="496" />
    <vehicle id="down_191" type="typeNS" route="down" depart="498" color="1,0,0"/>
    <vehicle id="down_192" type="typeNS" route="down" depart="500" color="1,0,0"/>
    <vehicle id="down_193" type="typeNS" route="down" depart="501" color="1,0,0"/>
    <vehicle id="right_194" type="typeWE" route="right" depart="502" />
    <vehicle id="down_195" type="typeNS" route="down" depart="512" color="1,0,0"/>
    <vehicle id="left_196" type="typeWE" route="left" depart="514" />
    <vehicle id="down_197" type="typeNS" route="down" depart="518" color="1,0,0"/>
    <vehicle id="down_198" type="typeNS" route="down" depart="520" color="1,0,0"/>
    <vehicle id="right_199" type="typeWE" route="right" depart="523" />
    <vehicle id="left_200" type="typeWE" route="left" depart="527" />
    <vehicle id="down_201" type="typeNS" route="down" depart="527" color="1,0,0"/>
    <vehicle id="down_202" type="typeNS" route="down" depart="531" color="1,0,0"/>
    <vehicle id="down_203" type="typeNS" route="down" depart="533" color="1,0,0"/>
    <vehicle id="right_204" type="typeWE" route="right" depart="536" />
    <vehicle id="left_205" type="typeWE" route="left" depart="536" />
    <vehicle id="left_206" type="typeWE" route="left" depart="541" />
    <vehicle id="down_207" type="typeNS" route="down" depart="541" color="1,0,0"/>
    <vehicle id="left_208" type="typeWE" route="left" depart="552" />
    <vehicle id="left_209" type="typeWE" route="left" depart="554" />
    <vehicle id="down_210" type="typeNS" route="down" depart="559" color="1,0,0"/>
    <vehicle id="down_211" type="typeNS" route="down" depart="561" color="1,0,0"/>
    <vehicle id="right_212" type="typeWE" route="right" depart="565" />
    <vehicle id="down_213" type="typeNS" route="down" depart="573" color="1,0,0"/>
    <vehicle id="down_214" type="typeNS" route="down" depart="577" color="1,0,0"/>
    <vehicle id="left_215" type="typeWE" route="left" depart="578" />
    <vehicle id="left_216" type="typeWE" route="left" depart="579" />
    <vehicle id="left_217" type="typeWE" route="left" depart="582" />
    <vehicle id="down_218" type="typeNS" route="down" depart="582" color="1,0,0"/>
    <vehicle id="down_219" type="typeNS" route="down" depart="584" color="1,0,0"/>
    <vehicle id="down_220" type="typeNS" route="down" depart="587" color="1,0,0"/>
    <vehicle id="down_221" type="typeNS" route="down" depart="600" color="1,0,0"/>
    <vehicle id="down_222" type="typeNS" route="down" depart="601" color="1,0,0"/>
    <vehicle id="left_223" type="typeWE" route="left" depart="602" />
    <vehicle id="down_224" type="typeNS" route="down" depart="604" color="1,0,0"/>
    <vehicle id="left_225" type="typeWE" route="left" depart="606" />
    <vehicle id="right_226" type="typeWE" route="right" depart="612" />
    <vehicle id="down_227" type="typeNS" route="down" depart="612" color="1,0,0"/>
    <vehicle id="down_228" type="typeNS" route="down" depart="615" color="1,0,0"/>
    <vehicle id="down_229" type="typeNS" route="down" depart="620" color="1,0,0"/>
    <vehicle id="down_230" type="typeNS" route="down" depart="621" color="1,0,0"/>
    <vehicle id="down_231" type="typeNS" route="down" depart="624" color="1,0,0"/>
    <vehicle id="down_232" type="typeNS" route="down" depart="625" color="1,0,0"/>
    <vehicle id="left_233" type="typeWE" route="left" depart="634" />
    <vehicle id="left_234" type="typeWE" route="left" depart="635" />
    <vehicle id="right_235" type="typeWE" route="right" depart="636" />
    <vehicle id="left_236" type="typeWE" route="left" depart="641" />
    <vehicle id="right_237" type="typeWE" route="right" depart="644" />
    <vehicle id="down_238" type="typeNS" route="down" depart="644" color="1,0,0"/>
    <vehicle id="down_239" type="typeNS" route="down" depart="645" color="1,0,0"/>
    <vehicle id="left_240" type="typeWE" route="left" depart="646" />
    <vehicle id="down_241" type="typeNS" route="down" depart="653" color="1,0,0"/>
    <vehicle id="right_242" type="typeWE" route="right" depart="654" />
    <vehicle id="down_243" type="typeNS" route="down" depart="657" color="1,0,0"/>
    <vehicle id="left_244" type="typeWE" route="left" depart="659" />
    <vehicle id="left_245" type="typeWE" route="left" depart="660" />
    <vehicle id="left_246" type="typeWE" route="left" depart="661" />
    <vehicle id="left_247" type="typeWE" route="left" depart="663" />
    <vehicle id="down_248" type="typeNS" route="down" depart="666" color="1,0,0"/>
    <vehicle id="right_249" type="typeWE" route="right" depart="668" />
    <vehicle id="down_250" type="typeNS" route="down" depart="680" color="1,0,0"/>
    <vehicle id="left_251" type="typeWE" route="left" depart="683" />
    <vehicle id="down_252" type="typeNS" route="down" depart="698" color="1,0,0"/>
    <vehicle id="down_253" type="typeNS" route="down" depart="700" color="1,0,0"/>
    <vehicle id="right_254" type="typeWE" route="right" depart="701" />
    <vehicle id="right_255" type="typeWE" route="right" depart="704" />
    <vehicle id="down_256" type="typeNS" route="down" depart="706" color="1,0,0"/>
    <vehicle id="left_257" type="typeWE" route="left" depart="707" />
    <vehicle id="down_258" type="typeNS" route="down" depart="708" color="1,0,0"/>
    <vehicle id="down_259" type="typeNS" route="down" depart="710" color="1,0,0"/>
    <vehicle id="left_260" type="typeWE" route="left" depart="717" />
    <vehicle id="down_261" type="typeNS" route="down" depart="717" color="1,0,0"/>
    <vehicle id="right_262" type="typeWE" route="right" depart="720" />
    <vehicle id="down_263" type="typeNS" route="down" depart="720" color="1,0,0"/>
    <vehicle id="left_264" type="typeWE" route="left" depart="722" />
    <vehicle id="down_265" type="typeNS" route="down" depart="722" color="1,0,0"/>
    <vehicle id="right_266" type="typeWE" route="right" depart="724" />
    <vehicle id="down_267" type="typeNS" route="down" depart="726" color="1,0,0"/>
    <vehicle id="right_268" type="typeWE" route="right" depart="731" />
    <vehicle id="down_269" type="typeNS" route="down" depart="733" color="1,0,0"/>
    <vehicle id="down_270" type="typeNS" route="down" depart="736" color="1,0,0"/>
    <vehicle id="right_271" type="typeWE" route="right" depart="738" />
    <vehicle id="left_272" type="typeWE" route="left" depart="740" />
    <vehicle id="down_273" type="typeNS" route="down" depart="741" color="1,0,0"/>
    <vehicle id="left_274" type="typeWE" route="left" depart="743" />
    <vehicle id="right_275" type="typeWE" route="right" depart="744" />
    <vehicle id="right_276" type="typeWE" route="right" depart="746" />
    <vehicle id="down_277" type="typeNS" route="down" depart="747" color="1,0,0"/>
    <vehicle id="left_278" type="typeWE" route="left" depart="749" />
    <vehicle id="down_279" type="typeNS" route="down" depart="750" color="1,0,0"/>
    <vehicle id="down_280" type="typeNS" route="down" depart="752" color="1,0,0"/>
    <vehicle id="left_281" type="typeWE" route="left" depart="768" />
    <vehicle id="down_282" type="typeNS" route="down" depart="772" color="1,0,0"/>
    <vehicle id="left_283" type="typeWE" route="left" depart="774" />
    <vehicle id="down_284" type="typeNS" route="down" depart="776" color="1,0,0"/>
    <vehicle id="down_285" type="typeNS" route="down" depart="780" color="1,0,0"/>
    <vehicle id="down_286" type="typeNS" route="down" depart="782" color="1,0,0"/>
    <vehicle id="down_287" type="typeNS" route="down" depart="787" color="1,0,0"/>
    <vehicle id="down_288" type="typeNS" route="down" depart="788" color="1,0,0"/>
    <vehicle id="down_289" type="typeNS" route="down" depart="790" color="1,0,0"/>
    <vehicle id="down_290" type="typeNS" route="down" depart="791" color="1,0,0"/>
    <vehicle id="down_291" type="typeNS" route="down" depart="794" color="1,0,0"/>
    <vehicle id="down_292" type="typeNS" route="down" depart="795" color="1,0,0"/>
    <vehicle id="left_293" type="typeWE" route="left" depart="801" />
    <vehicle id="down_294" type="typeNS" route="down" depart="801" color="1,0,0"/>
    <vehicle id="down_295" type="typeNS" route="down" depart="802" color="1,0,0"/>
    <vehicle id="down_296" type="typeNS" route="down" depart="804" color="1,0,0"/>
    <vehicle id="right_297" type="typeWE" route="right" depart="808" />
    <vehicle id="down_298" type="typeNS" route="down" depart="808" color="1,0,0"/>
    <vehicle id="right_299" type="typeWE" route="right" depart="812" />
    <vehicle id="left_300" type="typeWE" route="left" depart="812" />
    <vehicle id="down_301" type="typeNS" route="down" depart="815" color="1,0,0"/>
    <vehicle id="down_302" type="typeNS" route="down" depart="817" color="1,0,0"/>
    <vehicle id="down_303" type="typeNS" route="down" depart="824" color="1,0,0"/>
    <vehicle id="right_304" type="typeWE" route="right" depart="826" />
    <vehicle id="down_305" type="typeNS" route="down" depart="829" color="1,0,0"/>
    <vehicle id="down_306" type="typeNS" route="down" depart="831" color="1,0,0"/>
    <vehicle id="down_307" type="typeNS" route="down" depart="838" color="1,0,0"/>
    <vehicle id="right_308" type="typeWE" route="right" depart="841" />
    <vehicle id="left_309" type="typeWE" route="left" depart="845" />
    <vehicle id="down_310" type="typeNS" route="down" depart="845" color="1,0,0"/>
    <vehicle id="down_311" type="typeNS" route="down" depart="846" color="1,0,0"/>
    <vehicle id="down_312" type="typeNS" route="down" depart="847" color="1,0,0"/>
    <vehicle id="down_313" type="typeNS" route="down" depart="849" color="1,0,0"/>
    <vehicle id="left_314" type="typeWE" route="left" depart="854" />
    <vehicle id="right_315" type="typeWE" route="right" depart="856" />
    <vehicle id="down_316" type="typeNS" route="down" depart="857" color="1,0,0"/>
    <vehicle id="right_317" type="typeWE" route="right" depart="858" />
    <vehicle id="down_318" type="typeNS" route="down" depart="861" color="1,0,0"/>
    <vehicle id="left_319" type="typeWE" route="left" depart="862" />
    <vehicle id="left_320" type="typeWE" route="left" depart="865" />
    <vehicle id="down_321" type="typeNS" route="down" depart="865" color="1,0,0"/>
    <vehicle id="down_322" type="typeNS" route="down" depart="867" color="1,0,0"/>
    <vehicle id="left_323" type="typeWE" route="left" depart="868" />
    <vehicle id="down_324" type="typeNS" route="down" depart="872" color="1,0,0"/>
    <vehicle id="right_325" type="typeWE" route="right" depart="879" />
    <vehicle id="left_326" type="typeWE" route="left" depart="879" />
    <vehicle id="right_327" type="typeWE" route="right" depart="880" />
    <vehicle id="left_328" type="typeWE" route="left" depart="880" />
    <vehicle id="down_329" type="typeNS" route="down" depart="882" color="1,0,0"/>
    <vehicle id="right_330" type="typeWE" route="right" depart="887" />
    <vehicle id="left_331" type="typeWE" route="left" depart="888" />
    <vehicle id="down_332" type="typeNS" route="down" depart="888" color="1,0,0"/>
    <vehicle id="down_333" type="typeNS" route="down" depart="893" color="1,0,0"/>
    <vehicle id="down_334" type="typeNS" route="down" depart="895" color="1,0,0"/>
    <vehicle id="down_335" type="typeNS" route="down" depart="896" color="1,0,0"/>
    <vehicle id="down_336" type="typeNS" route="down" depart="897" color="1,0,0"/>
    <vehicle id="down_337" type="typeNS" route="down" depart="901" color="1,0,0"/>
    <vehicle id="right_338" type="typeWE" route="right" depart="907" />
    <vehicle id="down_339" type="typeNS" route="down" depart="909" color="1,0,0"/>
    <vehicle id="down_340" type="typeNS" route="down" depart="911" color="1,0,0"/>
    <vehicle id="down_341" type="typeNS" route="down" depart="914" color="1,0,0"/>
    <vehicle id="right_342" type="typeWE" route="right" depart="916" />
    <vehicle id="left_343" type="typeWE" route="left" depart="918" />
    <vehicle id="down_344" type="typeNS" route="down" depart="919" color="1,0,0"/>
    <vehicle id="right_345" type="typeWE" route="right" depart="921" />
    <vehicle id="right_346" type="typeWE" route="right" depart="922" />
    <vehicle id="left_347" type="typeWE" route="left" depart="924" />
    <vehicle id="down_348" type="typeNS" route="down" depart="924" color="1,0,0"/>
    <vehicle id="down_349" type="typeNS" route="down" depart="925" color="1,0,0"/>
    <vehicle id="down_350" type="typeNS" route="down" depart="929" color="1,0,0"/>
    <vehicle id="down_351" type="typeNS" route="down" depart="935" color="1,0,0"/>
    <vehicle id="down_352" type="typeNS" route="down" depart="936" color="1,0,0"/>
    <vehicle id="right_353" type="typeWE" route="right" depart="939" />
    <vehicle id="down_354" type="typeNS" route="down" depart="941" color="1,0,0"/>
    <vehicle id="down_355" type="typeNS" route="down" depart="942" color="1,0,0"/>
    <vehicle id="left_356" type="typeWE" route="left" depart="945" />
    <vehicle id="down_357" type="typeNS" route="down" depart="945" color="1,0,0"/>
    <vehicle id="down_358" type="typeNS" route="down" depart="946" color="1,0,0"/>
    <vehicle id="right_359" type="typeWE" route="right" depart="948" />
    <vehicle id="down_360" type="typeNS" route="down" depart="948" color="1,0,0"/>
    <vehicle id="right_361" type="typeWE" route="right" depart="950" />
    <vehicle id="down_362" type="typeNS" route="down" depart="950" color="1,0,0"/>
    <vehicle id="left_363" type="typeWE" route="left" depart="952" />
    <vehicle id="left_364" type="typeWE" route="left" depart="954" />
    <vehicle id="down_365" type="typeNS" route="down" depart="961" color="1,0,0"/>
    <vehicle id="down_366" type="typeNS" route="down" depart="963" color="1,0,0"/>
    <vehicle id="left_367" type="typeWE" route="left" depart="965" />
    <vehicle id="down_368" type="typeNS" route="down" depart="969" color="1,0,0"/>
    <vehicle id="left_369" type="typeWE" route="left" depart="973" />
    <vehicle id="down_370" type="typeNS" route="down" depart="974" color="1,0,0"/>
    <vehicle id="down_371" type="typeNS" route="down" depart="975" color="1,0,0"/>
    <vehicle id="left_372" type="typeWE" route="left" depart="977" />
    <vehicle id="down_373" type="typeNS" route="down" depart="980" color="1,0,0"/>
    <vehicle id="down_374" type="typeNS" route="down" depart="981" color="1,0,0"/>
    <vehicle id="down_375" type="typeNS" route="down" depart="985" color="1,0,0"/>
    <vehicle id="down_376" type="typeNS" route="down" depart="986" color="1,0,0"/>
    <vehicle id="right_377" type="typeWE" route="right" depart="989" />
    <vehicle id="down_378" type="typeNS" route="down" depart="992" color="1,0,0"/>
    <vehicle id="left_379" type="typeWE" route="left" depart="993" />
    <vehicle id="down_380" type="typeNS" route="down" depart="995" color="1,0,0"/>
    <vehicle id="down_381" type="typeNS" route="down" depart="996" color="1,0,0"/>
    <vehicle id="left_382" type="typeWE" route="left" depart="1001" />