<?xml version="1.0" encoding="UTF-8"?>

<!-- generated on 2020年12月07日 星期一 18时51分28秒 by Eclipse SUMO netedit Version 1.6.0
<configuration xmlns:xsi="http://www.w3.org/2001/XMLSchema-instance" xsi:noNamespaceSchemaLocation="http://sumo.dlr.de/xsd/netconvertConfiguration.xsd">

    <input>
        <sumo-net-file value="/home/yi/Desktop/sumo/junction/junction.net.xml"/>
    </input>

    <output>
        <output-file value="/home/yi/Desktop/sumo/junction/junction.net.xml"/>
    </output>

    <processing>
        <geometry.min-radius.fix.railways value="false"/>
        <geometry.max-grade.fix value="false"/>
        <offset.disable-normalization value="true"/>
        <lefthand value="false"/>
    </processing>

    <junctions>
        <no-turnarounds value="true"/>
        <junctions.corner-detail value="5"/>
        <junctions.limit-turn-speed value="5.5"/>
        <rectangular-lane-cut value="false"/>
    </junctions>

    <pedestrian>
        <walkingareas value="false"/>
    </pedestrian>

    <report>
        <aggregate-warnings value="5"/>
    </report>

</configuration>
-->

<net version="1.6" junctionCornerDetail="5" limitTurnSpeed="5.50" xmlns:xsi="http://www.w3.org/2001/XMLSchema-instance" xsi:noNamespaceSchemaLocation="http://sumo.dlr.de/xsd/net_file.xsd">

    <location netOffset="0.00,0.00" convBoundary="-150.00,-150.00,150.00,150.00" origBoundary="-10000000000.00,-10000000000.00,10000000000.00,10000000000.00" projParameter="!"/>

    <edge id=":2_0" function="internal">
        <lane id=":2_0_0" index="0" speed="13.89" length="0.10" shape="-50.00,1.60 -50.00,1.60"/>
    </edge>
    <edge id=":2_1" function="internal">
        <lane id=":2_1_0" index="0" speed="13.89" length="0.10" shape="-50.00,-1.60 -50.00,-1.60"/>
    </edge>
    <edge id=":3_0" function="internal">
        <lane id=":3_0_0" index="0" speed="13.89" length="0.10" shape="50.00,1.60 50.00,1.60"/>
    </edge>
    <edge id=":3_1" function="internal">
        <lane id=":3_1_0" index="0" speed="13.89" length="0.10" shape="50.00,-1.60 50.00,-1.60"/>
    </edge>
    <edge id=":4_0" function="internal">
        <lane id=":4_0_0" index="0" speed="13.89" length="0.10" shape="-1.60,50.00 -1.60,50.00"/>
    </edge>
    <edge id=":4_1" function="internal">
        <lane id=":4_1_0" index="0" speed="13.89" length="0.10" shape="1.60,50.00 1.60,50.00"/>
    </edge>
    <edge id=":5_0" function="internal">
        <lane id=":5_0_0" index="0" speed="13.89" length="0.10" shape="-1.60,-50.00 -1.60,-50.00"/>
    </edge>
    <edge id=":5_1" function="internal">
        <lane id=":5_1_0" index="0" speed="13.89" length="0.10" shape="1.60,-50.00 1.60,-50.00"/>
    </edge>
    <edge id=":J1_0" function="internal">
        <lane id=":J1_0_0" index="0" speed="6.51" length="9.03" shape="-1.60,7.20 -1.95,4.75 -3.00,3.00 -4.75,1.95 -7.20,1.60"/>
    </edge>
    <edge id=":J1_1" function="internal">
        <lane id=":J1_1_0" index="0" speed="13.89" length="14.40" shape="-1.60,7.20 -1.60,-7.20"/>
    </edge>
    <edge id=":J1_2" function="internal">
        <lane id=":J1_2_0" index="0" speed="8.00" length="5.93" shape="-1.60,7.20 -1.05,3.35 -0.00,1.60"/>
    </edge>
    <edge id=":J1_12" function="internal">
        <lane id=":J1_12_0" index="0" speed="8.00" length="8.26" shape="-0.00,1.60 0.60,0.60 3.35,-1.05 7.20,-1.60"/>
    </edge>
    <edge id=":J1_3" function="internal">
        <lane id=":J1_3_0" index="0" speed="6.51" length="9.03" shape="7.20,1.60 4.75,1.95 3.00,3.00 1.95,4.75 1.60,7.20"/>
    </edge>
    <edge id=":J1_4" function="internal">
        <lane id=":J1_4_0" index="0" speed="13.89" length="14.40" shape="7.20,1.60 -7.20,1.60"/>
    </edge>
    <edge id=":J1_5" function="internal">
        <lane id=":J1_5_0" index="0" speed="8.00" length="5.93" shape="7.20,1.60 3.35,1.05 1.60,0.00"/>
    </edge>
    <edge id=":J1_13" function="internal">
        <lane id=":J1_13_0" index="0" speed="8.00" length="8.26" shape="1.60,0.00 0.60,-0.60 -1.05,-3.35 -1.60,-7.20"/>
    </edge>
    <edge id=":J1_6" function="internal">
        <lane id=":J1_6_0" index="0" speed="6.51" length="9.03" shape="1.60,-7.20 1.95,-4.75 3.00,-3.00 4.75,-1.95 7.20,-1.60"/>
    </edge>
    <edge id=":J1_7" function="internal">
        <lane id=":J1_7_0" index="0" speed="13.89" length="14.40" shape="1.60,-7.20 1.60,7.20"/>
    </edge>
    <edge id=":J1_8" function="internal">
        <lane id=":J1_8_0" index="0" speed="8.00" length="5.93" shape="1.60,-7.20 1.05,-3.35 0.00,-1.60"/>
    </edge>
    <edge id=":J1_14" function="internal">
        <lane id=":J1_14_0" index="0" speed="8.00" length="8.26" shape="0.00,-1.60 -0.60,-0.60 -3.35,1.05 -7.20,1.60"/>
    </edge>
    <edge id=":J1_9" function="internal">
        <lane id=":J1_9_0" index="0" speed="6.51" length="9.03" shape="-7.20,-1.60 -4.75,-1.95 -3.00,-3.00 -1.95,-4.75 -1.60,-7.20"/>
    </edge>
    <edge id=":J1_10" function="internal">
        <lane id=":J1_10_0" index="0" speed="13.89" length="14.40" shape="-7.20,-1.60 7.20,-1.60"/>
    </edge>
    <edge id=":J1_11" function="internal">
        <lane id=":J1_11_0" index="0" speed="8.00" length="5.93" shape="-7.20,-1.60 -3.35,-1.05 -1.60,-0.00"/>
    </edge>
    <edge id=":J1_15" function="internal">
        <lane id=":J1_15_0" index="0" speed="8.00" length="8.26" shape="-1.60,-0.00 -0.60,0.60 1.05,3.35 1.60,7.20"/>
    </edge>

    <edge id="1i" from="4" to="J1" priority="-1">
        <lane id="1i_0" index="0" speed="13.89" length="42.80" shape="-1.60,50.00 -1.60,7.20"/>
    </edge>
    <edge id="1o" from="J1" to="4" priority="-1">
        <lane id="1o_0" index="0" speed="13.89" length="42.80" shape="1.60,7.20 1.60,50.00"/>
    </edge>
    <edge id="2i" from="3" to="J1" priority="-1">
        <lane id="2i_0" index="0" speed="13.89" length="42.80" shape="50.00,1.60 7.20,1.60"/>
    </edge>
    <edge id="2o" from="J1" to="3" priority="-1">
        <lane id="2o_0" index="0" speed="13.89" length="42.80" shape="7.20,-1.60 50.00,-1.60"/>
    </edge>
    <edge id="3i" from="5" to="J1" priority="-1">
        <lane id="3i_0" index="0" speed="13.89" length="42.80" shape="1.60,-50.00 1.60,-7.20"/>
    </edge>
    <edge id="3o" from="J1" to="5" priority="-1">
        <lane id="3o_0" index="0" speed="13.89" length="42.80" shape="-1.60,-7.20 -1.60,-50.00"/>
    </edge>
    <edge id="4i" from="2" to="J1" priority="-1">
        <lane id="4i_0" index="0" speed="13.89" length="42.80" shape="-50.00,-1.60 -7.20,-1.60"/>
    </edge>
    <edge id="4o" from="J1" to="2" priority="-1">
        <lane id="4o_0" index="0" speed="13.89" length="42.80" shape="-7.20,1.60 -50.00,1.60"/>
    </edge>
    <edge id="5i" from="gneJ0" to="4" priority="-1">
        <lane id="5i_0" index="0" speed="13.89" length="100.00" shape="-1.60,150.00 -1.60,50.00"/>
    </edge>
    <edge id="5o" from="4" to="gneJ0" priority="-1">
        <lane id="5o_0" index="0" speed="13.89" length="100.00" shape="1.60,50.00 1.60,150.00"/>
    </edge>
    <edge id="6i" from="gneJ1" to="3" priority="-1">
        <lane id="6i_0" index="0" speed="13.89" length="100.00" shape="150.00,1.60 50.00,1.60"/>
    </edge>
    <edge id="6o" from="3" to="gneJ1" priority="-1">
        <lane id="6o_0" index="0" speed="13.89" length="100.00" shape="50.00,-1.60 150.00,-1.60"/>
    </edge>
    <edge id="7i" from="gneJ2" to="5" priority="-1">
        <lane id="7i_0" index="0" speed="13.89" length="100.00" shape="1.60,-150.00 1.60,-50.00"/>
    </edge>
    <edge id="7o" from="5" to="gneJ2" priority="-1">
        <lane id="7o_0" index="0" speed="13.89" length="100.00" shape="-1.60,-50.00 -1.60,-150.00"/>
    </edge>
    <edge id="8i" from="gneJ3" to="2" priority="-1">
        <lane id="8i_0" index="0" speed="13.89" length="100.00" shape="-150.00,-1.60 -50.00,-1.60"/>
    </edge>
    <edge id="8o" from="2" to="gneJ3" priority="-1">
        <lane id="8o_0" index="0" speed="13.89" length="100.00" shape="-50.00,1.60 -150.00,1.60"/>
    </edge>

    <tlLogic id="J1" type="static" programID="0" offset="0">
        <phase duration="42" state="GGgrrrGGgrrr"/>
        <phase duration="3"  state="yyyrrryyyrrr"/>
        <phase duration="42" state="rrrGGgrrrGGg"/>
        <phase duration="3"  state="rrryyyrrryyy"/>
    </tlLogic>

    <junction id="2" type="priority" x="-50.00" y="0.00" incLanes="4o_0 8i_0" intLanes=":2_0_0 :2_1_0" shape="-50.00,3.20 -50.00,-3.20 -50.00,3.20">
        <request index="0" response="00" foes="00" cont="0"/>
        <request index="1" response="00" foes="00" cont="0"/>
    </junction>
    <junction id="3" type="priority" x="50.00" y="0.00" incLanes="6i_0 2o_0" intLanes=":3_0_0 :3_1_0" shape="50.00,3.20 50.00,-3.20 50.00,3.20">
        <request index="0" response="00" foes="00" cont="0"/>
        <request index="1" response="00" foes="00" cont="0"/>
    </junction>
    <junction id="4" type="priority" x="0.00" y="50.00" incLanes="5i_0 1o_0" intLanes=":4_0_0 :4_1_0" shape="-3.20,50.00 3.20,50.00 -3.20,50.00">
        <request index="0" response="00" foes="00" cont="0"/>
        <request index="1" response="00" foes="00" cont="0"/>
    </junction>
    <junction id="5" type="priority" x="0.00" y="-50.00" incLanes="3o_0 7i_0" intLanes=":5_0_0 :5_1_0" shape="-3.20,-50.00 3.20,-50.00 -3.20,-50.00">
        <request index="0" response="00" foes="00" cont="0"/>
        <request index="1" response="00" foes="00" cont="0"/>
    </junction>
    <junction id="J1" type="traffic_light" x="0.00" y="0.00" incLanes="1i_0 2i_0 3i_0 4i_0" intLanes=":J1_0_0 :J1_1_0 :J1_12_0 :J1_3_0 :J1_4_0 :J1_13_0 :J1_6_0 :J1_7_0 :J1_14_0 :J1_9_0 :J1_10_0 :J1_15_0" shape="-3.20,7.20 3.20,7.20 3.64,4.98 4.20,4.20 4.98,3.64 5.98,3.31 7.20,3.20 7.20,-3.20 4.98,-3.64 4.20,-4.20 3.64,-4.98 3.31,-5.98 3.20,-7.20 -3.20,-7.20 -3.64,-4.98 -4.20,-4.20 -4.98,-3.64 -5.98,-3.31 -7.20,-3.20 -7.20,3.20 -4.98,3.64 -4.20,4.20 -3.64,4.98 -3.31,5.98">
        <request index="0"  response="000000000000" foes="000100010000" cont="0"/>
        <request index="1"  response="100000100000" foes="111100110000" cont="0"/>
        <request index="2"  response="100011100000" foes="110011110000" cont="1"/>
        <request index="3"  response="000010000000" foes="100010000000" cont="0"/>
        <request index="4"  response="000110000111" foes="100110000111" cont="0"/>
        <request index="5"  response="011110000110" foes="011110000110" cont="1"/>
        <request index="6"  response="000000000000" foes="010000000100" cont="0"/>
        <request index="7"  response="100000100000" foes="110000111100" cont="0"/>
        <request index="8"  response="100000100011" foes="110000110011" cont="1"/>
        <request index="9"  response="000000000010" foes="000000100010" cont="0"/>
        <request index="10" response="000111000110" foes="000111100110" cont="0"/>
        <request index="11" response="000110011110" foes="000110011110" cont="1"/>
    </junction>
    <junction id="gneJ0" type="dead_end" x="0.00" y="150.00" incLanes="5o_0" intLanes="" shape="0.00,150.00 3.20,150.00 0.00,150.00"/>
    <junction id="gneJ1" type="dead_end" x="150.00" y="0.00" incLanes="6o_0" intLanes="" shape="150.00,0.00 150.00,-3.20 150.00,0.00"/>
    <junction id="gneJ2" type="dead_end" x="0.00" y="-150.00" incLanes="7o_0" intLanes="" shape="0.00,-150.00 -3.20,-150.00 0.00,-150.00"/>
    <junction id="gneJ3" type="dead_end" x="-150.00" y="0.00" incLanes="8o_0" intLanes="" shape="-150.00,0.00 -150.00,3.20 -150.00,0.00"/>

    <junction id=":J1_12_0" type="internal" x="-0.00" y="1.60" incLanes=":J1_2_0 3i_0" intLanes=":J1_4_0 :J1_5_0 :J1_6_0 :J1_7_0 :J1_10_0 :J1_11_0"/>
    <junction id=":J1_13_0" type="internal" x="1.60" y="0.00" incLanes=":J1_5_0 4i_0" intLanes=":J1_1_0 :J1_2_0 :J1_7_0 :J1_8_0 :J1_9_0 :J1_10_0"/>
    <junction id=":J1_14_0" type="internal" x="0.00" y="-1.60" incLanes=":J1_8_0 1i_0" intLanes=":J1_0_0 :J1_1_0 :J1_4_0 :J1_5_0 :J1_10_0 :J1_11_0"/>
    <junction id=":J1_15_0" type="internal" x="-1.60" y="-0.00" incLanes=":J1_11_0 2i_0" intLanes=":J1_1_0 :J1_2_0 :J1_3_0 :J1_4_0 :J1_7_0 :J1_8_0"/>

    <connection from="1i" to="4o" fromLane="0" toLane="0" via=":J1_0_0" tl="J1" linkIndex="0" dir="r" state="O"/>
    <connection from="1i" to="3o" fromLane="0" toLane="0" via=":J1_1_0" tl="J1" linkIndex="1" dir="s" state="O"/>
    <connection from="1i" to="2o" fromLane="0" toLane="0" via=":J1_2_0" tl="J1" linkIndex="2" dir="l" state="o"/>
    <connection from="1o" to="5o" fromLane="0" toLane="0" via=":4_1_0" dir="s" state="M"/>
    <connection from="2i" to="1o" fromLane="0" toLane="0" via=":J1_3_0" tl="J1" linkIndex="3" dir="r" state="o"/>
    <connection from="2i" to="4o" fromLane="0" toLane="0" via=":J1_4_0" tl="J1" linkIndex="4" dir="s" state="o"/>
    <connection from="2i" to="3o" fromLane="0" toLane="0" via=":J1_5_0" tl="J1" linkIndex="5" dir="l" state="o"/>
    <connection from="2o" to="6o" fromLane="0" toLane="0" via=":3_1_0" dir="s" state="M"/>
    <connection from="3i" to="2o" fromLane="0" toLane="0" via=":J1_6_0" tl="J1" linkIndex="6" dir="r" state="O"/>
    <connection from="3i" to="1o" fromLane="0" toLane="0" via=":J1_7_0" tl="J1" linkIndex="7" dir="s" state="O"/>
    <connection from="3i" to="4o" fromLane="0" toLane="0" via=":J1_8_0" tl="J1" linkIndex="8" dir="l" state="o"/>
    <connection from="3o" to="7o" fromLane="0" toLane="0" via=":5_0_0" dir="s" state="M"/>
    <connection from="4i" to="3o" fromLane="0" toLane="0" via=":J1_9_0" tl="J1" linkIndex="9" dir="r" state="o"/>
    <connection from="4i" to="2o" fromLane="0" toLane="0" via=":J1_10_0" tl="J1" linkIndex="10" dir="s" state="o"/>
    <connection from="4i" to="1o" fromLane="0" toLane="0" via=":J1_11_0" tl="J1" linkIndex="11" dir="l" state="o"/>
    <connection from="4o" to="8o" fromLane="0" toLane="0" via=":2_0_0" dir="s" state="M"/>
    <connection from="5i" to="1i" fromLane="0" toLane="0" via=":4_0_0" dir="s" state="M"/>
    <connection from="6i" to="2i" fromLane="0" toLane="0" via=":3_0_0" dir="s" state="M"/>
    <connection from="7i" to="3i" fromLane="0" toLane="0" via=":5_1_0" dir="s" state="M"/>
    <connection from="8i" to="4i" fromLane="0" toLane="0" via=":2_1_0" dir="s" state="M"/>

    <connection from=":2_0" to="8o" fromLane="0" toLane="0" dir="s" state="M"/>
    <connection from=":2_1" to="4i" fromLane="0" toLane="0" dir="s" state="M"/>
    <connection from=":3_0" to="2i" fromLane="0" toLane="0" dir="s" state="M"/>
    <connection from=":3_1" to="6o" fromLane="0" toLane="0" dir="s" state="M"/>
    <connection from=":4_0" to="1i" fromLane="0" toLane="0" dir="s" state="M"/>
    <connection from=":4_1" to="5o" fromLane="0" toLane="0" dir="s" state="M"/>
    <connection from=":5_0" to="7o" fromLane="0" toLane="0" dir="s" state="M"/>
    <connection from=":5_1" to="3i" fromLane="0" toLane="0" dir="s" state="M"/>
    <connection from=":J1_0" to="4o" fromLane="0" toLane="0" dir="r" state="M"/>
    <connection from=":J1_1" to="3o" fromLane="0" toLane="0" dir="s" state="M"/>
    <connection from=":J1_2" to="2o" fromLane="0" toLane="0" via=":J1_12_0" dir="l" state="m"/>
    <connection from=":J1_12" to="2o" fromLane="0" toLane="0" dir="l" state="M"/>
    <connection from=":J1_3" to="1o" fromLane="0" toLane="0" dir="r" state="M"/>
    <connection from=":J1_4" to="4o" fromLane="0" toLane="0" dir="s" state="M"/>
    <connection from=":J1_5" to="3o" fromLane="0" toLane="0" via=":J1_13_0" dir="l" state="m"/>
    <connection from=":J1_13" to="3o" fromLane="0" toLane="0" dir="l" state="M"/>
    <connection from=":J1_6" to="2o" fromLane="0" toLane="0" dir="r" state="M"/>
    <connection from=":J1_7" to="1o" fromLane="0" toLane="0" dir="s" state="M"/>
    <connection from=":J1_8" to="4o" fromLane="0" toLane="0" via=":J1_14_0" dir="l" state="m"/>
    <connection from=":J1_14" to="4o" fromLane="0" toLane="0" dir="l" state="M"/>
    <connection from=":J1_9" to="3o" fromLane="0" toLane="0" dir="r" state="M"/>
    <connection from=":J1_10" to="2o" fromLane="0" toLane="0" dir="s" state="M"/>
    <connection from=":J1_11" to="1o" fromLane="0" toLane="0" via=":J1_15_0" dir="l" state="m"/>
    <connection from=":J1_15" to="1o" fromLane="0" toLane="0" dir="l" state="M"/>

</net>
