
<routes>
    <vType id ="myType" vClass ="taxi" accel ="0.8" decel ="4.5" sigma = "0.5" length = "5"
    maxSpeed = "50" callFollowModel = "IDM" actionStepLength = "1" laneChangeModel = "SL2015"/>)


    <route id="route1" edges = "5i 1i 3o 7o"/>
    <route id="route2" edges = "6i 2i 4o 8o"/>
    <route id="route3" edges = "7i 3i 1o 5o"/>
    <route id="route4" edges = "8i 4i 2o 6o"/>
        
    <vehicle id = "2_0" type = "myType" guiShape = "passenger" route = "route2" depart = "0"  />
    <vehicle id = "3_1" type = "myType" guiShape = "passenger" route = "route3" depart = "0"  />
    <vehicle id = "4_2" type = "myType" guiShape = "passenger" route = "route4" depart = "1"  />
    <vehicle id = "2_3" type = "myType" guiShape = "passenger" route = "route2" depart = "2"  />
    <vehicle id = "3_4" type = "myType" guiShape = "passenger" route = "route3" depart = "2"  />
    <vehicle id = "1_5" type = "myType" guiShape = "passenger" route = "route1" depart = "3"  />
    <vehicle id = "2_6" type = "myType" guiShape = "passenger" route = "route2" depart = "3"  />
    <vehicle id = "1_7" type = "myType" guiShape = "passenger" route = "route1" depart = "4"  />
    <vehicle id = "4_8" type = "myType" guiShape = "passenger" route = "route4" depart = "4"  />
    <vehicle id = "4_9" type = "myType" guiShape = "passenger" route = "route4" depart = "5"  />
    <vehicle id = "3_10" type = "myType" guiShape = "passenger" route = "route3" depart = "6"  />
    <vehicle id = "4_11" type = "myType" guiShape = "passenger" route = "route4" depart = "6"  />
    <vehicle id = "2_12" type = "myType" guiShape = "passenger" route = "route2" depart = "10"  />
    <vehicle id = "3_13" type = "myType" guiShape = "passenger" route = "route3" depart = "10"  />
    <vehicle id = "1_14" type = "myType" guiShape = "passenger" route = "route1" depart = "11"  />
    <vehicle id = "3_15" type = "myType" guiShape = "passenger" route = "route3" depart = "11"  />
    <vehicle id = "1_16" type = "myType" guiShape = "passenger" route = "route1" depart = "13"  />
    <vehicle id = "1_17" type = "myType" guiShape = "passenger" route = "route1" depart = "14"  />
    <vehicle id = "3_18" type = "myType" guiShape = "passenger" route = "route3" depart = "14"  />
    <vehicle id = "3_19" type = "myType" guiShape = "passenger" route = "route3" depart = "16"  />
    <vehicle id = "4_20" type = "myType" guiShape = "passenger" route = "route4" depart = "16"  />
    <vehicle id = "1_21" type = "myType" guiShape = "passenger" route = "route1" depart = "17"  />
    <vehicle id = "3_22" type = "myType" guiShape = "passenger" route = "route3" depart = "17"  />
    <vehicle id = "3_23" type = "myType" guiShape = "passenger" route = "route3" depart = "19"  />
    <vehicle id = "1_24" type = "myType" guiShape = "passenger" route = "route1" depart = "22"  />
    <vehicle id = "2_25" type = "myType" guiShape = "passenger" route = "route2" depart = "22"  />
    <vehicle id = "3_26" type = "myType" guiShape = "passenger" route = "route3" depart = "22"  />
    <vehicle id = "3_27" type = "myType" guiShape = "passenger" route = "route3" depart = "23"  />
    <vehicle id = "1_28" type = "myType" guiShape = "passenger" route = "route1" depart = "25"  />
    <vehicle id = "1_29" type = "myType" guiShape = "passenger" route = "route1" depart = "26"  />
    <vehicle id = "3_30" type = "myType" guiShape = "passenger" route = "route3" depart = "26"  />
    <vehicle id = "2_31" type = "myType" guiShape = "passenger" route = "route2" depart = "28"  />
    <vehicle id = "1_32" type = "myType" guiShape = "passenger" route = "route1" depart = "29"  />
    <vehicle id = "4_33" type = "myType" guiShape = "passenger" route = "route4" depart = "29"  />
    <vehicle id = "1_34" type = "myType" guiShape = "passenger" route = "route1" depart = "31"  />
    <vehicle id = "3_35" type = "myType" guiShape = "passenger" route = "route3" depart = "31"  />
    <vehicle id = "3_36" type = "myType" guiShape = "passenger" route = "route3" depart = "32"  />
    <vehicle id = "4_37" type = "myType" guiShape = "passenger" route = "route4" depart = "32"  />
    <vehicle id = "3_38" type = "myType" guiShape = "passenger" route = "route3" depart = "33"  />
    <vehicle id = "1_39" type = "myType" guiShape = "passenger" route = "route1" depart = "34"  />
    <vehicle id = "4_40" type = "myType" guiShape = "passenger" route = "route4" depart = "34"  />
    <vehicle id = "3_41" type = "myType" guiShape = "passenger" route = "route3" depart = "35"  />
    <vehicle id = "1_42" type = "myType" guiShape = "passenger" route = "route1" depart = "37"  />
    <vehicle id = "3_43" type = "myType" guiShape = "passenger" route = "route3" depart = "38"  />
    <vehicle id = "3_44" type = "myType" guiShape = "passenger" route = "route3" depart = "39"  />
    <vehicle id = "1_45" type = "myType" guiShape = "passenger" route = "route1" depart = "40"  />
    <vehicle id = "3_46" type = "myType" guiShape = "passenger" route = "route3" depart = "40"  />
    <vehicle id = "2_47" type = "myType" guiShape = "passenger" route = "route2" depart = "41"  />
    <vehicle id = "3_48" type = "myType" guiShape = "passenger" route = "route3" depart = "41"  />
    <vehicle id = "1_49" type = "myType" guiShape = "passenger" route = "route1" depart = "42"  />
    <vehicle id = "2_50" type = "myType" guiShape = "passenger" route = "route2" depart = "42"  />
    <vehicle id = "4_51" type = "myType" guiShape = "passenger" route = "route4" depart = "43"  />
    <vehicle id = "1_52" type = "myType" guiShape = "passenger" route = "route1" depart = "44"  />
    <vehicle id = "4_53" type = "myType" guiShape = "passenger" route = "route4" depart = "45"  />
    <vehicle id = "1_54" type = "myType" guiShape = "passenger" route = "route1" depart = "47"  />
    <vehicle id = "1_55" type = "myType" guiShape = "passenger" route = "route1" depart = "48"  />
    <vehicle id = "2_56" type = "myType" guiShape = "passenger" route = "route2" depart = "49"  />
    <vehicle id = "4_57" type = "myType" guiShape = "passenger" route = "route4" depart = "50"  />
    <vehicle id = "4_58" type = "myType" guiShape = "passenger" route = "route4" depart = "51"  />
    <vehicle id = "3_59" type = "myType" guiShape = "passenger" route = "route3" depart = "52"  />
    <vehicle id = "3_60" type = "myType" guiShape = "passenger" route = "route3" depart = "54"  />
    <vehicle id = "1_61" type = "myType" guiShape = "passenger" route = "route1" depart = "56"  />
    <vehicle id = "1_62" type = "myType" guiShape = "passenger" route = "route1" depart = "57"  />
    <vehicle id = "3_63" type = "myType" guiShape = "passenger" route = "route3" depart = "57"  />
    <vehicle id = "4_64" type = "myType" guiShape = "passenger" route = "route4" depart = "57"  />
    <vehicle id = "3_65" type = "myType" guiShape = "passenger" route = "route3" depart = "58"  />
    <vehicle id = "4_66" type = "myType" guiShape = "passenger" route = "route4" depart = "58"  />
    <vehicle id = "1_67" type = "myType" guiShape = "passenger" route = "route1" depart = "61"  />
    <vehicle id = "3_68" type = "myType" guiShape = "passenger" route = "route3" depart = "61"  />
    <vehicle id = "3_69" type = "myType" guiShape = "passenger" route = "route3" depart = "62"  />
    <vehicle id = "1_70" type = "myType" guiShape = "passenger" route = "route1" depart = "63"  />
    <vehicle id = "1_71" type = "myType" guiShape = "passenger" route = "route1" depart = "64"  />
    <vehicle id = "3_72" type = "myType" guiShape = "passenger" route = "route3" depart = "64"  />
    <vehicle id = "4_73" type = "myType" guiShape = "passenger" route = "route4" depart = "65"  />
    <vehicle id = "2_74" type = "myType" guiShape = "passenger" route = "route2" depart = "67"  />
    <vehicle id = "3_75" type = "myType" guiShape = "passenger" route = "route3" depart = "68"  />
    <vehicle id = "4_76" type = "myType" guiShape = "passenger" route = "route4" depart = "68"  />
    <vehicle id = "1_77" type = "myType" guiShape = "passenger" route = "route1" depart = "69"  />
    <vehicle id = "3_78" type = "myType" guiShape = "passenger" route = "route3" depart = "69"  />
    <vehicle id = "4_79" type = "myType" guiShape = "passenger" route = "route4" depart = "71"  />
    <vehicle id = "3_80" type = "myType" guiShape = "passenger" route = "route3" depart = "72"  />
    <vehicle id = "2_81" type = "myType" guiShape = "passenger" route = "route2" depart = "74"  />
    <vehicle id = "3_82" type = "myType" guiShape = "passenger" route = "route3" depart = "74"  />
    <vehicle id = "1_83" type = "myType" guiShape = "passenger" route = "route1" depart = "76"  />
    <vehicle id = "2_84" type = "myType" guiShape = "passenger" route = "route2" depart = "76"  />
    <vehicle id = "3_85" type = "myType" guiShape = "passenger" route = "route3" depart = "76"  />
    <vehicle id = "1_86" type = "myType" guiShape = "passenger" route = "route1" depart = "78"  />
    <vehicle id = "2_87" type = "myType" guiShape = "passenger" route = "route2" depart = "78"  />
    <vehicle id = "3_88" type = "myType" guiShape = "passenger" route = "route3" depart = "79"  />
    <vehicle id = "1_89" type = "myType" guiShape = "passenger" route = "route1" depart = "81"  />
    <vehicle id = "3_90" type = "myType" guiShape = "passenger" route = "route3" depart = "81"  />
    <vehicle id = "2_91" type = "myType" guiShape = "passenger" route = "route2" depart = "83"  />
    <vehicle id = "1_92" type = "myType" guiShape = "passenger" route = "route1" depart = "84"  />
    <vehicle id = "3_93" type = "myType" guiShape = "passenger" route = "route3" depart = "85"  />
    <vehicle id = "4_94" type = "myType" guiShape = "passenger" route = "route4" depart = "85"  />
    <vehicle id = "1_95" type = "myType" guiShape = "passenger" route = "route1" depart = "86"  />
    <vehicle id = "2_96" type = "myType" guiShape = "passenger" route = "route2" depart = "88"  />
    <vehicle id = "4_97" type = "myType" guiShape = "passenger" route = "route4" depart = "88"  />
    <vehicle id = "3_98" type = "myType" guiShape = "passenger" route = "route3" depart = "89"  />
    <vehicle id = "3_99" type = "myType" guiShape = "passenger" route = "route3" depart = "91"  />
    <vehicle id = "1_100" type = "myType" guiShape = "passenger" route = "route1" depart = "92"  />
    <vehicle id = "4_101" type = "myType" guiShape = "passenger" route = "route4" depart = "93"  />
    <vehicle id = "3_102" type = "myType" guiShape = "passenger" route = "route3" depart = "94"  />
    <vehicle id = "3_103" type = "myType" guiShape = "passenger" route = "route3" depart = "95"  />
    <vehicle id = "3_104" type = "myType" guiShape = "passenger" route = "route3" depart = "96"  />
    <vehicle id = "1_105" type = "myType" guiShape = "passenger" route = "route1" depart = "98"  />
    <vehicle id = "3_106" type = "myType" guiShape = "passenger" route = "route3" depart = "98"  />
    <vehicle id = "2_107" type = "myType" guiShape = "passenger" route = "route2" depart = "101"  />
    <vehicle id = "3_108" type = "myType" guiShape = "passenger" route = "route3" depart = "101"  />
    <vehicle id = "3_109" type = "myType" guiShape = "passenger" route = "route3" depart = "103"  />
    <vehicle id = "4_110" type = "myType" guiShape = "passenger" route = "route4" depart = "103"  />
    <vehicle id = "1_111" type = "myType" guiShape = "passenger" route = "route1" depart = "104"  />
    <vehicle id = "4_112" type = "myType" guiShape = "passenger" route = "route4" depart = "104"  />
    <vehicle id = "3_113" type = "myType" guiShape = "passenger" route = "route3" depart = "105"  />
    <vehicle id = "4_114" type = "myType" guiShape = "passenger" route = "route4" depart = "106"  />
    <vehicle id = "3_115" type = "myType" guiShape = "passenger" route = "route3" depart = "107"  />
    <vehicle id = "1_116" type = "myType" guiShape = "passenger" route = "route1" depart = "108"  />
    <vehicle id = "4_117" type = "myType" guiShape = "passenger" route = "route4" depart = "108"  />
    <vehicle id = "1_118" type = "myType" guiShape = "passenger" route = "route1" depart = "109"  />
    <vehicle id = "3_119" type = "myType" guiShape = "passenger" route = "route3" depart = "113"  />
    <vehicle id = "1_120" type = "myType" guiShape = "passenger" route = "route1" depart = "115"  />
    <vehicle id = "3_121" type = "myType" guiShape = "passenger" route = "route3" depart = "115"  />
    <vehicle id = "2_122" type = "myType" guiShape = "passenger" route = "route2" depart = "116"  />
    <vehicle id = "3_123" type = "myType" guiShape = "passenger" route = "route3" depart = "116"  />
    <vehicle id = "2_124" type = "myType" guiShape = "passenger" route = "route2" depart = "117"  />
    <vehicle id = "2_125" type = "myType" guiShape = "passenger" route = "route2" depart = "120"  />
    <vehicle id = "3_126" type = "myType" guiShape = "passenger" route = "route3" depart = "122"  />
    <vehicle id = "2_127" type = "myType" guiShape = "passenger" route = "route2" depart = "123"  />
    <vehicle id = "2_128" type = "myType" guiShape = "passenger" route = "route2" depart = "124"  />
    <vehicle id = "4_129" type = "myType" guiShape = "passenger" route = "route4" depart = "124"  />
    <vehicle id = "2_130" type = "myType" guiShape = "passenger" route = "route2" depart = "125"  />
    <vehicle id = "1_131" type = "myType" guiShape = "passenger" route = "route1" depart = "126"  />
    <vehicle id = "3_132" type = "myType" guiShape = "passenger" route = "route3" depart = "126"  />
    <vehicle id = "1_133" type = "myType" guiShape = "passenger" route = "route1" depart = "127"  />
    <vehicle id = "3_134" type = "myType" guiShape = "passenger" route = "route3" depart = "127"  />
    <vehicle id = "1_135" type = "myType" guiShape = "passenger" route = "route1" depart = "129"  />
    <vehicle id = "2_136" type = "myType" guiShape = "passenger" route = "route2" depart = "129"  />
    <vehicle id = "3_137" type = "myType" guiShape = "passenger" route = "route3" depart = "129"  />
    <vehicle id = "4_138" type = "myType" guiShape = "passenger" route = "route4" depart = "131"  />
    <vehicle id = "1_139" type = "myType" guiShape = "passenger" route = "route1" depart = "132"  />
    <vehicle id = "2_140" type = "myType" guiShape = "passenger" route = "route2" depart = "132"  />
    <vehicle id = "3_141" type = "myType" guiShape = "passenger" route = "route3" depart = "132"  />
    <vehicle id = "1_142" type = "myType" guiShape = "passenger" route = "route1" depart = "134"  />
    <vehicle id = "4_143" type = "myType" guiShape = "passenger" route = "route4" depart = "134"  />
    <vehicle id = "3_144" type = "myType" guiShape = "passenger" route = "route3" depart = "135"  />
    <vehicle id = "4_145" type = "myType" guiShape = "passenger" route = "route4" depart = "135"  />
    <vehicle id = "1_146" type = "myType" guiShape = "passenger" route = "route1" depart = "136"  />
    <vehicle id = "2_147" type = "myType" guiShape = "passenger" route = "route2" depart = "137"  />
    <vehicle id = "1_148" type = "myType" guiShape = "passenger" route = "route1" depart = "138"  />
    <vehicle id = "1_149" type = "myType" guiShape = "passenger" route = "route1" depart = "139"  />
    <vehicle id = "3_150" type = "myType" guiShape = "passenger" route = "route3" depart = "141"  />
    <vehicle id = "3_151" type = "myType" guiShape = "passenger" route = "route3" depart = "143"  />
    <vehicle id = "1_152" type = "myType" guiShape = "passenger" route = "route1" depart = "145"  />
    <vehicle id = "4_153" type = "myType" guiShape = "passenger" route = "route4" depart = "145"  />
    <vehicle id = "2_154" type = "myType" guiShape = "passenger" route = "route2" depart = "147"  />
    <vehicle id = "4_155" type = "myType" guiShape = "passenger" route = "route4" depart = "147"  />
    <vehicle id = "1_156" type = "myType" guiShape = "passenger" route = "route1" depart = "148"  />
    <vehicle id = "3_157" type = "myType" guiShape = "passenger" route = "route3" depart = "149"  />
    <vehicle id = "1_158" type = "myType" guiShape = "passenger" route = "route1" depart = "150"  />
    <vehicle id = "1_159" type = "myType" guiShape = "passenger" route = "route1" depart = "152"  />
    <vehicle id = "1_160" type = "myType" guiShape = "passenger" route = "route1" depart = "155"  />
    <vehicle id = "2_161" type = "myType" guiShape = "passenger" route = "route2" depart = "155"  />
    <vehicle id = "3_162" type = "myType" guiShape = "passenger" route = "route3" depart = "155"  />
    <vehicle id = "4_163" type = "myType" guiShape = "passenger" route = "route4" depart = "155"  />
    <vehicle id = "3_164" type = "myType" guiShape = "passenger" route = "route3" depart = "156"  />
    <vehicle id = "1_165" type = "myType" guiShape = "passenger" route = "route1" depart = "158"  />
    <vehicle id = "2_166" type = "myType" guiShape = "passenger" route = "route2" depart = "158"  />
    <vehicle id = "3_167" type = "myType" guiShape = "passenger" route = "route3" depart = "158"  />
    <vehicle id = "1_168" type = "myType" guiShape = "passenger" route = "route1" depart = "159"  />
    <vehicle id = "2_169" type = "myType" guiShape = "passenger" route = "route2" depart = "159"  />
    <vehicle id = "4_170" type = "myType" guiShape = "passenger" route = "route4" depart = "160"  />
    <vehicle id = "3_171" type = "myType" guiShape = "passenger" route = "route3" depart = "162"  />
    <vehicle id = "4_172" type = "myType" guiShape = "passenger" route = "route4" depart = "162"  />
    <vehicle id = "1_173" type = "myType" guiShape = "passenger" route = "route1" depart = "164"  />
    <vehicle id = "3_174" type = "myType" guiShape = "passenger" route = "route3" depart = "164"  />
    <vehicle id = "4_175" type = "myType" guiShape = "passenger" route = "route4" depart = "164"  />
    <vehicle id = "4_176" type = "myType" guiShape = "passenger" route = "route4" depart = "165"  />
    <vehicle id = "3_177" type = "myType" guiShape = "passenger" route = "route3" depart = "169"  />
    <vehicle id = "2_178" type = "myType" guiShape = "passenger" route = "route2" depart = "170"  />
    <vehicle id = "3_179" type = "myType" guiShape = "passenger" route = "route3" depart = "170"  />
    <vehicle id = "4_180" type = "myType" guiShape = "passenger" route = "route4" depart = "170"  />
    <vehicle id = "1_181" type = "myType" guiShape = "passenger" route = "route1" depart = "171"  />
    <vehicle id = "1_182" type = "myType" guiShape = "passenger" route = "route1" depart = "172"  />
    <vehicle id = "4_183" type = "myType" guiShape = "passenger" route = "route4" depart = "175"  />
    <vehicle id = "1_184" type = "myType" guiShape = "passenger" route = "route1" depart = "176"  />
    <vehicle id = "1_185" type = "myType" guiShape = "passenger" route = "route1" depart = "177"  />
    <vehicle id = "2_186" type = "myType" guiShape = "passenger" route = "route2" depart = "177"  />
    <vehicle id = "4_187" type = "myType" guiShape = "passenger" route = "route4" depart = "178"  />
    <vehicle id = "1_188" type = "myType" guiShape = "passenger" route = "route1" depart = "179"  />
    <vehicle id = "3_189" type = "myType" guiShape = "passenger" route = "route3" depart = "179"  />
    <vehicle id = "1_190" type = "myType" guiShape = "passenger" route = "route1" depart = "180"  />
    <vehicle id = "1_191" type = "myType" guiShape = "passenger" route = "route1" depart = "182"  />
    <vehicle id = "2_192" type = "myType" guiShape = "passenger" route = "route2" depart = "183"  />
    <vehicle id = "2_193" type = "myType" guiShape = "passenger" route = "route2" depart = "184"  />
    <vehicle id = "3_194" type = "myType" guiShape = "passenger" route = "route3" depart = "185"  />
    <vehicle id = "1_195" type = "myType" guiShape = "passenger" route = "route1" depart = "186"  />
    <vehicle id = "3_196" type = "myType" guiShape = "passenger" route = "route3" depart = "187"  />
    <vehicle id = "3_197" type = "myType" guiShape = "passenger" route = "route3" depart = "189"  />
    <vehicle id = "1_198" type = "myType" guiShape = "passenger" route = "route1" depart = "192"  />
    <vehicle id = "1_199" type = "myType" guiShape = "passenger" route = "route1" depart = "193"  />
    <vehicle id = "4_200" type = "myType" guiShape = "passenger" route = "route4" depart = "193"  />
    <vehicle id = "4_201" type = "myType" guiShape = "passenger" route = "route4" depart = "194"  />
    <vehicle id = "1_202" type = "myType" guiShape = "passenger" route = "route1" depart = "196"  />
    <vehicle id = "3_203" type = "myType" guiShape = "passenger" route = "route3" depart = "198"  />
    <vehicle id = "1_204" type = "myType" guiShape = "passenger" route = "route1" depart = "200"  />
    <vehicle id = "2_205" type = "myType" guiShape = "passenger" route = "route2" depart = "201"  />
    <vehicle id = "1_206" type = "myType" guiShape = "passenger" route = "route1" depart = "203"  />
    <vehicle id = "2_207" type = "myType" guiShape = "passenger" route = "route2" depart = "204"  />
    <vehicle id = "3_208" type = "myType" guiShape = "passenger" route = "route3" depart = "206"  />
    <vehicle id = "2_209" type = "myType" guiShape = "passenger" route = "route2" depart = "209"  />
    <vehicle id = "4_210" type = "myType" guiShape = "passenger" route = "route4" depart = "212"  />
    <vehicle id = "1_211" type = "myType" guiShape = "passenger" route = "route1" depart = "213"  />
    <vehicle id = "3_212" type = "myType" guiShape = "passenger" route = "route3" depart = "214"  />
    <vehicle id = "1_213" type = "myType" guiShape = "passenger" route = "route1" depart = "216"  />
    <vehicle id = "3_214" type = "myType" guiShape = "passenger" route = "route3" depart = "216"  />
    <vehicle id = "1_215" type = "myType" guiShape = "passenger" route = "route1" depart = "217"  />
    <vehicle id = "1_216" type = "myType" guiShape = "passenger" route = "route1" depart = "218"  />
    <vehicle id = "2_217" type = "myType" guiShape = "passenger" route = "route2" depart = "218"  />
    <vehicle id = "1_218" type = "myType" guiShape = "passenger" route = "route1" depart = "219"  />
    <vehicle id = "3_219" type = "myType" guiShape = "passenger" route = "route3" depart = "219"  />
    <vehicle id = "1_220" type = "myType" guiShape = "passenger" route = "route1" depart = "220"  />
    <vehicle id = "3_221" type = "myType" guiShape = "passenger" route = "route3" depart = "220"  />
    <vehicle id = "3_222" type = "myType" guiShape = "passenger" route = "route3" depart = "221"  />
    <vehicle id = "1_223" type = "myType" guiShape = "passenger" route = "route1" depart = "223"  />
    <vehicle id = "3_224" type = "myType" guiShape = "passenger" route = "route3" depart = "223"  />
    <vehicle id = "1_225" type = "myType" guiShape = "passenger" route = "route1" depart = "226"  />
    <vehicle id = "1_226" type = "myType" guiShape = "passenger" route = "route1" depart = "227"  />
    <vehicle id = "1_227" type = "myType" guiShape = "passenger" route = "route1" depart = "228"  />
    <vehicle id = "2_228" type = "myType" guiShape = "passenger" route = "route2" depart = "232"  />
    <vehicle id = "3_229" type = "myType" guiShape = "passenger" route = "route3" depart = "232"  />
    <vehicle id = "1_230" type = "myType" guiShape = "passenger" route = "route1" depart = "233"  />
    <vehicle id = "2_231" type = "myType" guiShape = "passenger" route = "route2" depart = "233"  />
    <vehicle id = "2_232" type = "myType" guiShape = "passenger" route = "route2" depart = "236"  />
    <vehicle id = "4_233" type = "myType" guiShape = "passenger" route = "route4" depart = "236"  />
    <vehicle id = "1_234" type = "myType" guiShape = "passenger" route = "route1" depart = "239"  />
    <vehicle id = "1_235" type = "myType" guiShape = "passenger" route = "route1" depart = "241"  />
    <vehicle id = "3_236" type = "myType" guiShape = "passenger" route = "route3" depart = "241"  />
    <vehicle id = "3_237" type = "myType" guiShape = "passenger" route = "route3" depart = "242"  />
    <vehicle id = "4_238" type = "myType" guiShape = "passenger" route = "route4" depart = "242"  />
    <vehicle id = "3_239" type = "myType" guiShape = "passenger" route = "route3" depart = "243"  />
    <vehicle id = "1_240" type = "myType" guiShape = "passenger" route = "route1" depart = "244"  />
    <vehicle id = "3_241" type = "myType" guiShape = "passenger" route = "route3" depart = "244"  />
    <vehicle id = "1_242" type = "myType" guiShape = "passenger" route = "route1" depart = "245"  />
    <vehicle id = "3_243" type = "myType" guiShape = "passenger" route = "route3" depart = "245"  />
    <vehicle id = "2_244" type = "myType" guiShape = "passenger" route = "route2" depart = "247"  />
    <vehicle id = "4_245" type = "myType" guiShape = "passenger" route = "route4" depart = "247"  />
    <vehicle id = "4_246" type = "myType" guiShape = "passenger" route = "route4" depart = "248"  />
    <vehicle id = "1_247" type = "myType" guiShape = "passenger" route = "route1" depart = "250"  />
    <vehicle id = "3_248" type = "myType" guiShape = "passenger" route = "route3" depart = "251"  />
    <vehicle id = "4_249" type = "myType" guiShape = "passenger" route = "route4" depart = "251"  />
    <vehicle id = "2_250" type = "myType" guiShape = "passenger" route = "route2" depart = "253"  />
    <vehicle id = "1_251" type = "myType" guiShape = "passenger" route = "route1" depart = "254"  />
    <vehicle id = "3_252" type = "myType" guiShape = "passenger" route = "route3" depart = "254"  />
    <vehicle id = "1_253" type = "myType" guiShape = "passenger" route = "route1" depart = "255"  />
    <vehicle id = "1_254" type = "myType" guiShape = "passenger" route = "route1" depart = "256"  />
    <vehicle id = "3_255" type = "myType" guiShape = "passenger" route = "route3" depart = "256"  />
    <vehicle id = "1_256" type = "myType" guiShape = "passenger" route = "route1" depart = "257"  />
    <vehicle id = "2_257" type = "myType" guiShape = "passenger" route = "route2" depart = "257"  />
    <vehicle id = "3_258" type = "myType" guiShape = "passenger" route = "route3" depart = "257"  />
    <vehicle id = "4_259" type = "myType" guiShape = "passenger" route = "route4" depart = "257"  />
    <vehicle id = "2_260" type = "myType" guiShape = "passenger" route = "route2" depart = "258"  />
    <vehicle id = "3_261" type = "myType" guiShape = "passenger" route = "route3" depart = "258"  />
    <vehicle id = "1_262" type = "myType" guiShape = "passenger" route = "route1" depart = "259"  />
    <vehicle id = "3_263" type = "myType" guiShape = "passenger" route = "route3" depart = "259"  />
    <vehicle id = "4_264" type = "myType" guiShape = "passenger" route = "route4" depart = "259"  />
    <vehicle id = "3_265" type = "myType" guiShape = "passenger" route = "route3" depart = "261"  />
    <vehicle id = "2_266" type = "myType" guiShape = "passenger" route = "route2" depart = "262"  />
    <vehicle id = "4_267" type = "myType" guiShape = "passenger" route = "route4" depart = "263"  />
    <vehicle id = "2_268" type = "myType" guiShape = "passenger" route = "route2" depart = "265"  />
    <vehicle id = "3_269" type = "myType" guiShape = "passenger" route = "route3" depart = "265"  />
    <vehicle id = "1_270" type = "myType" guiShape = "passenger" route = "route1" depart = "266"  />
    <vehicle id = "1_271" type = "myType" guiShape = "passenger" route = "route1" depart = "267"  />
    <vehicle id = "2_272" type = "myType" guiShape = "passenger" route = "route2" depart = "268"  />
    <vehicle id = "2_273" type = "myType" guiShape = "passenger" route = "route2" depart = "271"  />
    <vehicle id = "2_274" type = "myType" guiShape = "passenger" route = "route2" depart = "272"  />
    <vehicle id = "4_275" type = "myType" guiShape = "passenger" route = "route4" depart = "272"  />
    <vehicle id = "2_276" type = "myType" guiShape = "passenger" route = "route2" depart = "273"  />
    <vehicle id = "3_277" type = "myType" guiShape = "passenger" route = "route3" depart = "273"  />
    <vehicle id = "1_278" type = "myType" guiShape = "passenger" route = "route1" depart = "275"  />
    <vehicle id = "2_279" type = "myType" guiShape = "passenger" route = "route2" depart = "275"  />
    <vehicle id = "3_280" type = "myType" guiShape = "passenger" route = "route3" depart = "278"  />
    <vehicle id = "2_281" type = "myType" guiShape = "passenger" route = "route2" depart = "281"  />
    <vehicle id = "1_282" type = "myType" guiShape = "passenger" route = "route1" depart = "282"  />
    <vehicle id = "2_283" type = "myType" guiShape = "passenger" route = "route2" depart = "282"  />
    <vehicle id = "2_284" type = "myType" guiShape = "passenger" route = "route2" depart = "283"  />
    <vehicle id = "2_285" type = "myType" guiShape = "passenger" route = "route2" depart = "284"  />
    <vehicle id = "4_286" type = "myType" guiShape = "passenger" route = "route4" depart = "284"  />
    <vehicle id = "1_287" type = "myType" guiShape = "passenger" route = "route1" depart = "287"  />
    <vehicle id = "2_288" type = "myType" guiShape = "passenger" route = "route2" depart = "287"  />
    <vehicle id = "3_289" type = "myType" guiShape = "passenger" route = "route3" depart = "287"  />
    <vehicle id = "4_290" type = "myType" guiShape = "passenger" route = "route4" depart = "289"  />
    <vehicle id = "2_291" type = "myType" guiShape = "passenger" route = "route2" depart = "291"  />
    <vehicle id = "1_292" type = "myType" guiShape = "passenger" route = "route1" depart = "292"  />
    <vehicle id = "3_293" type = "myType" guiShape = "passenger" route = "route3" depart = "292"  />
    <vehicle id = "4_294" type = "myType" guiShape = "passenger" route = "route4" depart = "292"  />