<?xml version="1.0" encoding="UTF-8"?>

<!-- generated on 2020年12月11日 星期五 10时34分03秒 by Eclipse SUMO netedit Version 1.6.0
<configuration xmlns:xsi="http://www.w3.org/2001/XMLSchema-instance" xsi:noNamespaceSchemaLocation="http://sumo.dlr.de/xsd/netconvertConfiguration.xsd">

    <input>
        <sumo-net-file value="/home/yi/Desktop/sumo/lane/lane.net.xml"/>
    </input>

    <output>
        <output-file value="/home/yi/Desktop/sumo/lane/lane.net.xml"/>
    </output>

    <processing>
        <geometry.min-radius.fix.railways value="false"/>
        <geometry.max-grade.fix value="false"/>
        <offset.disable-normalization value="true"/>
        <lefthand value="false"/>
    </processing>

    <junctions>
        <no-internal-links value="true"/>
        <no-turnarounds value="true"/>
        <junctions.corner-detail value="5"/>
        <junctions.limit-turn-speed value="5.5"/>
        <rectangular-lane-cut value="false"/>
    </junctions>

    <pedestrian>
        <walkingareas value="false"/>
    </pedestrian>

    <report>
        <aggregate-warnings value="5"/>
    </report>

</configuration>
-->

<net version="1.6" junctionCornerDetail="5" limitTurnSpeed="5.50" xmlns:xsi="http://www.w3.org/2001/XMLSchema-instance" xsi:noNamespaceSchemaLocation="http://sumo.dlr.de/xsd/net_file.xsd">

    <location netOffset="0.00,0.00" convBoundary="-200.00,0.00,220.00,0.00" origBoundary="-10000000000.00,-10000000000.00,10000000000.00,10000000000.00" projParameter="!"/>

    <edge id="E1" from="p1" to="p2" priority="-1">
        <lane id="E1_0" index="0" speed="13.89" length="400.00" shape="-200.00,-8.00 200.00,-8.00"/>
        <lane id="E1_1" index="1" speed="13.89" length="400.00" shape="-200.00,-4.80 200.00,-4.80"/>
        <lane id="E1_2" index="2" speed="13.89" length="400.00" shape="-200.00,-1.60 200.00,-1.60"/>
    </edge>
    <edge id="E2" from="p2" to="p3" priority="-1">
        <lane id="E2_0" index="0" speed="13.89" length="20.00" shape="200.00,-8.00 220.00,-8.00"/>
        <lane id="E2_1" index="1" speed="13.89" length="20.00" shape="200.00,-4.80 220.00,-4.80"/>
        <lane id="E2_2" index="2" speed="13.89" length="20.00" shape="200.00,-1.60 220.00,-1.60"/>
    </edge>

    <junction id="p1" type="dead_end" x="-200.00" y="0.00" incLanes="" intLanes="" shape="-200.00,0.00 -200.00,-9.60"/>
    <junction id="p2" type="priority" x="200.00" y="0.00" incLanes="E1_0 E1_1 E1_2" intLanes="" shape="200.00,0.00 200.00,-9.60 200.00,0.00">
        <request index="0" response="000" foes="000"/>
        <request index="1" response="000" foes="000"/>
        <request index="2" response="000" foes="000"/>
    </junction>
    <junction id="p3" type="dead_end" x="220.00" y="0.00" incLanes="E2_0 E2_1 E2_2" intLanes="" shape="220.00,-9.60 220.00,0.00"/>

    <connection from="E1" to="E2" fromLane="0" toLane="0" dir="s" state="M"/>
    <connection from="E1" to="E2" fromLane="1" toLane="1" dir="s" state="M"/>
    <connection from="E1" to="E2" fromLane="2" toLane="2" dir="s" state="M"/>

</net>
