<?xml version="1.0" encoding="UTF-8"?>

<!-- generated on 2021-11-05 21:20:01 by Eclipse SUMO netedit Version 1.9.2
<configuration xmlns:xsi="http://www.w3.org/2001/XMLSchema-instance" xsi:noNamespaceSchemaLocation="http://sumo.dlr.de/xsd/netconvertConfiguration.xsd">

    <input>
        <sumo-net-file value="/home/yi/Desktop/src/sumo/traffic_env/junction2/junction.net.xml"/>
    </input>

    <output>
        <output-file value="/home/yi/Desktop/src/sumo/traffic_env/junction2/junction.net.xml"/>
    </output>

    <processing>
        <geometry.min-radius.fix.railways value="false"/>
        <geometry.max-grade.fix value="false"/>
        <offset.disable-normalization value="true"/>
        <lefthand value="false"/>
    </processing>

    <junctions>
        <no-turnarounds value="true"/>
        <junctions.corner-detail value="5"/>
        <junctions.limit-turn-speed value="5.5"/>
        <rectangular-lane-cut value="false"/>
    </junctions>

    <pedestrian>
        <walkingareas value="false"/>
    </pedestrian>

    <report>
        <aggregate-warnings value="5"/>
    </report>

</configuration>
-->

<net version="1.9" junctionCornerDetail="5" limitTurnSpeed="5.50" xmlns:xsi="http://www.w3.org/2001/XMLSchema-instance" xsi:noNamespaceSchemaLocation="http://sumo.dlr.de/xsd/net_file.xsd">

    <location netOffset="0.00,0.00" convBoundary="-100.00,-100.00,100.00,100.00" origBoundary="-10000000000.00,-10000000000.00,10000000000.00,10000000000.00" projParameter="!"/>

    <edge id=":J1_0" function="internal">
        <lane id=":J1_0_0" index="0" speed="6.79" length="9.68" width="4.00" shape="-10.00,16.00 -10.38,13.38 -11.50,11.50 -13.38,10.38 -16.00,10.00"/>
        <lane id=":J1_0_1" index="1" speed="7.77" length="13.06" width="4.00" shape="-10.00,16.00 -10.38,11.63 -11.50,8.50 -13.38,6.63 -16.00,6.00"/>
    </edge>
    <edge id=":J1_2" function="internal">
        <lane id=":J1_2_0" index="0" speed="13.89" length="32.00" width="4.00" shape="-10.00,16.00 -10.00,-16.00"/>
        <lane id=":J1_2_1" index="1" speed="13.89" length="32.00" width="4.00" shape="-6.00,16.00 -6.00,-16.00"/>
    </edge>
    <edge id=":J1_4" function="internal">
        <lane id=":J1_4_0" index="0" speed="11.89" length="19.21" width="4.00" shape="-2.00,16.00 -0.87,6.38 2.50,-0.50 4.00,-1.60"/>
        <lane id=":J1_4_1" index="1" speed="11.29" length="16.26" width="4.00" shape="-2.00,16.00 -0.87,8.13 2.50,2.50 4.00,1.60"/>
    </edge>
    <edge id=":J1_24" function="internal">
        <lane id=":J1_24_0" index="0" speed="11.89" length="13.11" width="4.00" shape="4.00,-1.60 8.13,-4.62 16.00,-6.00"/>
    </edge>
    <edge id=":J1_25" function="internal">
        <lane id=":J1_25_0" index="0" speed="11.29" length="12.77" width="4.00" shape="4.00,1.60 8.13,-0.87 16.00,-2.00"/>
    </edge>
    <edge id=":J1_6" function="internal">
        <lane id=":J1_6_0" index="0" speed="6.79" length="9.68" width="4.00" shape="16.00,10.00 13.38,10.38 11.50,11.50 10.38,13.38 10.00,16.00"/>
        <lane id=":J1_6_1" index="1" speed="7.77" length="13.06" width="4.00" shape="16.00,10.00 11.63,10.38 8.50,11.50 6.63,13.38 6.00,16.00"/>
    </edge>
    <edge id=":J1_8" function="internal">
        <lane id=":J1_8_0" index="0" speed="13.89" length="32.00" width="4.00" shape="16.00,10.00 -16.00,10.00"/>
        <lane id=":J1_8_1" index="1" speed="13.89" length="32.00" width="4.00" shape="16.00,6.00 -16.00,6.00"/>
    </edge>
    <edge id=":J1_10" function="internal">
        <lane id=":J1_10_0" index="0" speed="11.89" length="32.32" width="4.00" shape="16.00,2.00 6.38,0.87 -0.50,-2.50 -4.62,-8.13 -6.00,-16.00"/>
        <lane id=":J1_10_1" index="1" speed="11.29" length="29.03" width="4.00" shape="16.00,2.00 8.13,0.87 2.50,-2.50 -0.87,-8.13 -2.00,-16.00"/>
    </edge>
    <edge id=":J1_12" function="internal">
        <lane id=":J1_12_0" index="0" speed="6.79" length="9.68" width="4.00" shape="10.00,-16.00 10.38,-13.38 11.50,-11.50 13.38,-10.38 16.00,-10.00"/>
        <lane id=":J1_12_1" index="1" speed="7.77" length="13.06" width="4.00" shape="10.00,-16.00 10.38,-11.63 11.50,-8.50 13.38,-6.63 16.00,-6.00"/>
    </edge>
    <edge id=":J1_14" function="internal">
        <lane id=":J1_14_0" index="0" speed="13.89" length="32.00" width="4.00" shape="10.00,-16.00 10.00,16.00"/>
        <lane id=":J1_14_1" index="1" speed="13.89" length="32.00" width="4.00" shape="6.00,-16.00 6.00,16.00"/>
    </edge>
    <edge id=":J1_16" function="internal">
        <lane id=":J1_16_0" index="0" speed="11.89" length="19.21" width="4.00" shape="2.00,-16.00 0.87,-6.38 -2.50,0.50 -4.00,1.60"/>
        <lane id=":J1_16_1" index="1" speed="11.29" length="16.26" width="4.00" shape="2.00,-16.00 0.87,-8.13 -2.50,-2.50 -4.00,-1.60"/>
    </edge>
    <edge id=":J1_26" function="internal">
        <lane id=":J1_26_0" index="0" speed="11.89" length="13.11" width="4.00" shape="-4.00,1.60 -8.13,4.62 -16.00,6.00"/>
    </edge>
    <edge id=":J1_27" function="internal">
        <lane id=":J1_27_0" index="0" speed="11.29" length="12.77" width="4.00" shape="-4.00,-1.60 -8.13,0.87 -16.00,2.00"/>
    </edge>
    <edge id=":J1_18" function="internal">
        <lane id=":J1_18_0" index="0" speed="6.79" length="9.68" width="4.00" shape="-16.00,-10.00 -13.38,-10.38 -11.50,-11.50 -10.38,-13.38 -10.00,-16.00"/>
        <lane id=":J1_18_1" index="1" speed="7.77" length="13.06" width="4.00" shape="-16.00,-10.00 -11.63,-10.38 -8.50,-11.50 -6.63,-13.38 -6.00,-16.00"/>
    </edge>
    <edge id=":J1_20" function="internal">
        <lane id=":J1_20_0" index="0" speed="13.89" length="32.00" width="4.00" shape="-16.00,-10.00 16.00,-10.00"/>
        <lane id=":J1_20_1" index="1" speed="13.89" length="32.00" width="4.00" shape="-16.00,-6.00 16.00,-6.00"/>
    </edge>
    <edge id=":J1_22" function="internal">
        <lane id=":J1_22_0" index="0" speed="11.89" length="32.32" width="4.00" shape="-16.00,-2.00 -6.38,-0.87 0.50,2.50 4.62,8.13 6.00,16.00"/>
        <lane id=":J1_22_1" index="1" speed="11.29" length="29.03" width="4.00" shape="-16.00,-2.00 -8.13,-0.87 -2.50,2.50 0.87,8.13 2.00,16.00"/>
    </edge>

    <edge id="1i" from="4" to="J1" priority="-1">
        <lane id="1i_0" index="0" speed="13.89" length="84.00" width="4.00" shape="-10.00,100.00 -10.00,16.00"/>
        <lane id="1i_1" index="1" speed="13.89" length="84.00" width="4.00" shape="-6.00,100.00 -6.00,16.00"/>
        <lane id="1i_2" index="2" speed="13.89" length="84.00" width="4.00" shape="-2.00,100.00 -2.00,16.00"/>
    </edge>
    <edge id="1o" from="J1" to="4" priority="-1">
        <lane id="1o_0" index="0" speed="13.89" length="84.00" width="4.00" shape="10.00,16.00 10.00,100.00"/>
        <lane id="1o_1" index="1" speed="13.89" length="84.00" width="4.00" shape="6.00,16.00 6.00,100.00"/>
        <lane id="1o_2" index="2" speed="13.89" length="84.00" width="4.00" shape="2.00,16.00 2.00,100.00"/>
    </edge>
    <edge id="2i" from="3" to="J1" priority="-1">
        <lane id="2i_0" index="0" speed="13.89" length="84.00" width="4.00" shape="100.00,10.00 16.00,10.00"/>
        <lane id="2i_1" index="1" speed="13.89" length="84.00" width="4.00" shape="100.00,6.00 16.00,6.00"/>
        <lane id="2i_2" index="2" speed="13.89" length="84.00" width="4.00" shape="100.00,2.00 16.00,2.00"/>
    </edge>
    <edge id="2o" from="J1" to="3" priority="-1">
        <lane id="2o_0" index="0" speed="13.89" length="84.00" width="4.00" shape="16.00,-10.00 100.00,-10.00"/>
        <lane id="2o_1" index="1" speed="13.89" length="84.00" width="4.00" shape="16.00,-6.00 100.00,-6.00"/>
        <lane id="2o_2" index="2" speed="13.89" length="84.00" width="4.00" shape="16.00,-2.00 100.00,-2.00"/>
    </edge>
    <edge id="3i" from="5" to="J1" priority="-1">
        <lane id="3i_0" index="0" speed="13.89" length="84.00" width="4.00" shape="10.00,-100.00 10.00,-16.00"/>
        <lane id="3i_1" index="1" speed="13.89" length="84.00" width="4.00" shape="6.00,-100.00 6.00,-16.00"/>
        <lane id="3i_2" index="2" speed="13.89" length="84.00" width="4.00" shape="2.00,-100.00 2.00,-16.00"/>
    </edge>
    <edge id="3o" from="J1" to="5" priority="-1">
        <lane id="3o_0" index="0" speed="13.89" length="84.00" width="4.00" shape="-10.00,-16.00 -10.00,-100.00"/>
        <lane id="3o_1" index="1" speed="13.89" length="84.00" width="4.00" shape="-6.00,-16.00 -6.00,-100.00"/>
        <lane id="3o_2" index="2" speed="13.89" length="84.00" width="4.00" shape="-2.00,-16.00 -2.00,-100.00"/>
    </edge>
    <edge id="4i" from="2" to="J1" priority="-1">
        <lane id="4i_0" index="0" speed="13.89" length="84.00" width="4.00" shape="-100.00,-10.00 -16.00,-10.00"/>
        <lane id="4i_1" index="1" speed="13.89" length="84.00" width="4.00" shape="-100.00,-6.00 -16.00,-6.00"/>
        <lane id="4i_2" index="2" speed="13.89" length="84.00" width="4.00" shape="-100.00,-2.00 -16.00,-2.00"/>
    </edge>
    <edge id="4o" from="J1" to="2" priority="-1">
        <lane id="4o_0" index="0" speed="13.89" length="84.00" width="4.00" shape="-16.00,10.00 -100.00,10.00"/>
        <lane id="4o_1" index="1" speed="13.89" length="84.00" width="4.00" shape="-16.00,6.00 -100.00,6.00"/>
        <lane id="4o_2" index="2" speed="13.89" length="84.00" width="4.00" shape="-16.00,2.00 -100.00,2.00"/>
    </edge>

    <junction id="2" type="dead_end" x="-100.00" y="0.00" incLanes="4o_0 4o_1 4o_2" intLanes="" shape="-100.00,0.00 -100.00,12.00 -100.00,0.00"/>
    <junction id="3" type="dead_end" x="100.00" y="0.00" incLanes="2o_0 2o_1 2o_2" intLanes="" shape="100.00,0.00 100.00,-12.00 100.00,0.00"/>
    <junction id="4" type="dead_end" x="0.00" y="100.00" incLanes="1o_0 1o_1 1o_2" intLanes="" shape="0.00,100.00 12.00,100.00 0.00,100.00"/>
    <junction id="5" type="dead_end" x="0.00" y="-100.00" incLanes="3o_0 3o_1 3o_2" intLanes="" shape="0.00,-100.00 -12.00,-100.00 0.00,-100.00"/>
    <junction id="J1" type="priority" x="0.00" y="0.00" incLanes="1i_0 1i_1 1i_2 2i_0 2i_1 2i_2 3i_0 3i_1 3i_2 4i_0 4i_1 4i_2" intLanes=":J1_0_0 :J1_0_1 :J1_2_0 :J1_2_1 :J1_24_0 :J1_25_0 :J1_6_0 :J1_6_1 :J1_8_0 :J1_8_1 :J1_10_0 :J1_10_1 :J1_12_0 :J1_12_1 :J1_14_0 :J1_14_1 :J1_26_0 :J1_27_0 :J1_18_0 :J1_18_1 :J1_20_0 :J1_20_1 :J1_22_0 :J1_22_1" shape="-12.00,16.00 12.00,16.00 12.44,13.78 13.00,13.00 13.78,12.44 14.78,12.11 16.00,12.00 16.00,-12.00 13.78,-12.44 13.00,-13.00 12.44,-13.78 12.11,-14.78 12.00,-16.00 -12.00,-16.00 -12.44,-13.78 -13.00,-13.00 -13.78,-12.44 -14.78,-12.11 -16.00,-12.00 -16.00,12.00 -13.78,12.44 -13.00,13.00 -12.44,13.78 -12.11,14.78">
        <request index="0"  response="000000000000000000000000" foes="000000110000001100000000" cont="0"/>
        <request index="1"  response="000000000000000000000000" foes="000000110000001100000000" cont="0"/>
        <request index="2"  response="000000000000000000000000" foes="111111110000111100000000" cont="0"/>
        <request index="3"  response="000000000000000000000000" foes="111111110000111100000000" cont="0"/>
        <request index="4"  response="000000001111000000000000" foes="111100001111111100000000" cont="1"/>
        <request index="5"  response="000000001111000000000000" foes="111100001111111100000000" cont="1"/>
        <request index="6"  response="000000001100000000000000" foes="110000001100000000000000" cont="0"/>
        <request index="7"  response="000000001100000000000000" foes="110000001100000000000000" cont="0"/>
        <request index="8"  response="000000111100000000111111" foes="110000111100000000111111" cont="0"/>
        <request index="9"  response="000000111100000000111111" foes="110000111100000000111111" cont="0"/>
        <request index="10" response="001111111100000000111100" foes="001111111100000000111100" cont="0"/>
        <request index="11" response="001111111100000000111100" foes="001111111100000000111100" cont="0"/>
        <request index="12" response="000000000000000000000000" foes="001100000000000000110000" cont="0"/>
        <request index="13" response="000000000000000000000000" foes="001100000000000000110000" cont="0"/>
        <request index="14" response="000000000000000000000000" foes="111100000000111111110000" cont="0"/>
        <request index="15" response="000000000000000000000000" foes="111100000000111111110000" cont="0"/>
        <request index="16" response="000000000000000000001111" foes="111100000000111100001111" cont="1"/>
        <request index="17" response="000000000000000000001111" foes="111100000000111100001111" cont="1"/>
        <request index="18" response="000000000000000000001100" foes="000000000000110000001100" cont="0"/>
        <request index="19" response="000000000000000000001100" foes="000000000000110000001100" cont="0"/>
        <request index="20" response="000000111111000000111100" foes="000000111111110000111100" cont="0"/>
        <request index="21" response="000000111111000000111100" foes="000000111111110000111100" cont="0"/>
        <request index="22" response="000000111100001111111100" foes="000000111100001111111100" cont="0"/>
        <request index="23" response="000000111100001111111100" foes="000000111100001111111100" cont="0"/>
    </junction>

    <junction id=":J1_24_0" type="internal" x="4.00" y="-1.60" incLanes=":J1_4_0 3i_0 3i_1" intLanes=":J1_8_0 :J1_8_1 :J1_10_0 :J1_10_1 :J1_12_0 :J1_12_1 :J1_14_0 :J1_14_1 :J1_20_0 :J1_20_1 :J1_22_0 :J1_22_1"/>
    <junction id=":J1_25_0" type="internal" x="4.00" y="1.60" incLanes=":J1_4_1 3i_0 3i_1" intLanes=":J1_8_0 :J1_8_1 :J1_10_0 :J1_10_1 :J1_12_0 :J1_12_1 :J1_14_0 :J1_14_1 :J1_20_0 :J1_20_1 :J1_22_0 :J1_22_1"/>
    <junction id=":J1_26_0" type="internal" x="-4.00" y="1.60" incLanes=":J1_16_0 1i_0 1i_1" intLanes=":J1_0_0 :J1_0_1 :J1_2_0 :J1_2_1 :J1_8_0 :J1_8_1 :J1_10_0 :J1_10_1 :J1_20_0 :J1_20_1 :J1_22_0 :J1_22_1"/>
    <junction id=":J1_27_0" type="internal" x="-4.00" y="-1.60" incLanes=":J1_16_1 1i_0 1i_1" intLanes=":J1_0_0 :J1_0_1 :J1_2_0 :J1_2_1 :J1_8_0 :J1_8_1 :J1_10_0 :J1_10_1 :J1_20_0 :J1_20_1 :J1_22_0 :J1_22_1"/>

    <connection from="1i" to="4o" fromLane="0" toLane="0" via=":J1_0_0" dir="r" state="M"/>
    <connection from="1i" to="4o" fromLane="0" toLane="1" via=":J1_0_1" dir="r" state="M"/>
    <connection from="1i" to="3o" fromLane="0" toLane="0" via=":J1_2_0" dir="s" state="M"/>
    <connection from="1i" to="3o" fromLane="1" toLane="1" via=":J1_2_1" dir="s" state="M"/>
    <connection from="1i" to="2o" fromLane="2" toLane="1" via=":J1_4_0" dir="l" state="m"/>
    <connection from="1i" to="2o" fromLane="2" toLane="2" via=":J1_4_1" dir="l" state="m"/>
    <connection from="2i" to="1o" fromLane="0" toLane="0" via=":J1_6_0" dir="r" state="m"/>
    <connection from="2i" to="1o" fromLane="0" toLane="1" via=":J1_6_1" dir="r" state="m"/>
    <connection from="2i" to="4o" fromLane="0" toLane="0" via=":J1_8_0" dir="s" state="m"/>
    <connection from="2i" to="4o" fromLane="1" toLane="1" via=":J1_8_1" dir="s" state="m"/>
    <connection from="2i" to="3o" fromLane="2" toLane="1" via=":J1_10_0" dir="l" state="m"/>
    <connection from="2i" to="3o" fromLane="2" toLane="2" via=":J1_10_1" dir="l" state="m"/>
    <connection from="3i" to="2o" fromLane="0" toLane="0" via=":J1_12_0" dir="r" state="M"/>
    <connection from="3i" to="2o" fromLane="0" toLane="1" via=":J1_12_1" dir="r" state="M"/>
    <connection from="3i" to="1o" fromLane="0" toLane="0" via=":J1_14_0" dir="s" state="M"/>
    <connection from="3i" to="1o" fromLane="1" toLane="1" via=":J1_14_1" dir="s" state="M"/>
    <connection from="3i" to="4o" fromLane="2" toLane="1" via=":J1_16_0" dir="l" state="m"/>
    <connection from="3i" to="4o" fromLane="2" toLane="2" via=":J1_16_1" dir="l" state="m"/>
    <connection from="4i" to="3o" fromLane="0" toLane="0" via=":J1_18_0" dir="r" state="m"/>
    <connection from="4i" to="3o" fromLane="0" toLane="1" via=":J1_18_1" dir="r" state="m"/>
    <connection from="4i" to="2o" fromLane="0" toLane="0" via=":J1_20_0" dir="s" state="m"/>
    <connection from="4i" to="2o" fromLane="1" toLane="1" via=":J1_20_1" dir="s" state="m"/>
    <connection from="4i" to="1o" fromLane="2" toLane="1" via=":J1_22_0" dir="l" state="m"/>
    <connection from="4i" to="1o" fromLane="2" toLane="2" via=":J1_22_1" dir="l" state="m"/>

    <connection from=":J1_0" to="4o" fromLane="0" toLane="0" dir="r" state="M"/>
    <connection from=":J1_0" to="4o" fromLane="1" toLane="1" dir="r" state="M"/>
    <connection from=":J1_2" to="3o" fromLane="0" toLane="0" dir="s" state="M"/>
    <connection from=":J1_2" to="3o" fromLane="1" toLane="1" dir="s" state="M"/>
    <connection from=":J1_4" to="2o" fromLane="0" toLane="1" via=":J1_24_0" dir="l" state="m"/>
    <connection from=":J1_24" to="2o" fromLane="0" toLane="1" dir="l" state="M"/>
    <connection from=":J1_4" to="2o" fromLane="1" toLane="2" via=":J1_25_0" dir="l" state="m"/>
    <connection from=":J1_25" to="2o" fromLane="0" toLane="2" dir="l" state="M"/>
    <connection from=":J1_6" to="1o" fromLane="0" toLane="0" dir="r" state="M"/>
    <connection from=":J1_6" to="1o" fromLane="1" toLane="1" dir="r" state="M"/>
    <connection from=":J1_8" to="4o" fromLane="0" toLane="0" dir="s" state="M"/>
    <connection from=":J1_8" to="4o" fromLane="1" toLane="1" dir="s" state="M"/>
    <connection from=":J1_10" to="3o" fromLane="0" toLane="1" dir="l" state="M"/>
    <connection from=":J1_10" to="3o" fromLane="1" toLane="2" dir="l" state="M"/>
    <connection from=":J1_12" to="2o" fromLane="0" toLane="0" dir="r" state="M"/>
    <connection from=":J1_12" to="2o" fromLane="1" toLane="1" dir="r" state="M"/>
    <connection from=":J1_14" to="1o" fromLane="0" toLane="0" dir="s" state="M"/>
    <connection from=":J1_14" to="1o" fromLane="1" toLane="1" dir="s" state="M"/>
    <connection from=":J1_16" to="4o" fromLane="0" toLane="1" via=":J1_26_0" dir="l" state="m"/>
    <connection from=":J1_26" to="4o" fromLane="0" toLane="1" dir="l" state="M"/>
    <connection from=":J1_16" to="4o" fromLane="1" toLane="2" via=":J1_27_0" dir="l" state="m"/>
    <connection from=":J1_27" to="4o" fromLane="0" toLane="2" dir="l" state="M"/>
    <connection from=":J1_18" to="3o" fromLane="0" toLane="0" dir="r" state="M"/>
    <connection from=":J1_18" to="3o" fromLane="1" toLane="1" dir="r" state="M"/>
    <connection from=":J1_20" to="2o" fromLane="0" toLane="0" dir="s" state="M"/>
    <connection from=":J1_20" to="2o" fromLane="1" toLane="1" dir="s" state="M"/>
    <connection from=":J1_22" to="1o" fromLane="0" toLane="1" dir="l" state="M"/>
    <connection from=":J1_22" to="1o" fromLane="1" toLane="2" dir="l" state="M"/>

</net>
